*SPEF "ieee 1481-1999"
*DESIGN "pulse_generator"
*DATE "11:11:11 Fri 11 11, 1111"
*VENDOR "OpenRCX"
*PROGRAM "Parallel Extraction"
*VERSION "1.0"
*DESIGN_FLOW "NAME_SCOPE LOCAL" "PIN_CAP NONE"
*DIVIDER /
*DELIMITER :
*BUS_DELIMITER []
*T_UNIT 1 NS
*C_UNIT 1 PF
*R_UNIT 1 OHM
*L_UNIT 1 HENRY

*NAME_MAP
*1 DIVIDE_BY_N[0]
*2 DIVIDE_BY_N[1]
*3 DIVIDE_BY_N[2]
*4 DIVIDE_BY_N[3]
*7 clk
*8 comb_out
*9 rst
*10 sync_out
*11 _000_
*12 _001_
*13 _002_
*14 _003_
*15 _004_
*16 _005_
*17 _006_
*18 _007_
*19 _008_
*20 _009_
*21 _010_
*22 _011_
*23 _012_
*24 _013_
*25 _014_
*26 _015_
*27 _016_
*28 _017_
*29 _018_
*30 _019_
*31 _020_
*32 _021_
*33 _022_
*34 _023_
*35 _024_
*36 _025_
*37 _026_
*38 _027_
*39 _028_
*40 _029_
*41 _030_
*42 _031_
*43 _032_
*44 _033_
*45 _034_
*46 _035_
*47 _036_
*48 _037_
*49 _038_
*50 _039_
*51 _040_
*52 _041_
*53 _042_
*54 _043_
*55 _044_
*56 _045_
*57 _046_
*58 _047_
*59 _048_
*60 _049_
*61 _050_
*62 _051_
*63 _052_
*64 _053_
*65 _054_
*66 _055_
*67 _056_
*68 _057_
*69 _058_
*70 _059_
*71 _060_
*72 _061_
*73 clknet_0_clk
*74 clknet_1_0__leaf_clk
*75 clknet_1_1__leaf_clk
*76 count\[0\]
*77 count\[10\]
*78 count\[1\]
*79 count\[2\]
*80 count\[3\]
*81 count\[4\]
*82 count\[5\]
*83 count\[6\]
*84 count\[7\]
*85 count\[8\]
*86 count\[9\]
*87 net1
*88 net10
*89 net11
*90 net12
*91 net13
*92 net14
*93 net2
*94 net3
*95 net4
*96 net5
*97 net6
*98 net7
*99 net8
*100 net9
*101 FILLER_0_0_49
*102 FILLER_0_0_55
*103 FILLER_0_0_57
*104 FILLER_0_0_67
*105 FILLER_0_0_75
*106 FILLER_0_10_15
*107 FILLER_0_10_22
*108 FILLER_0_10_3
*109 FILLER_0_10_36
*110 FILLER_0_10_50
*111 FILLER_0_10_54
*112 FILLER_0_10_61
*113 FILLER_0_10_67
*114 FILLER_0_10_79
*115 FILLER_0_11_15
*116 FILLER_0_11_3
*117 FILLER_0_11_31
*118 FILLER_0_11_35
*119 FILLER_0_11_53
*120 FILLER_0_11_57
*121 FILLER_0_12_11
*122 FILLER_0_12_29
*123 FILLER_0_12_3
*124 FILLER_0_12_50
*125 FILLER_0_12_58
*126 FILLER_0_12_77
*127 FILLER_0_13_12
*128 FILLER_0_13_24
*129 FILLER_0_13_29
*130 FILLER_0_13_37
*131 FILLER_0_13_47
*132 FILLER_0_13_55
*133 FILLER_0_13_57
*134 FILLER_0_13_69
*135 FILLER_0_1_15
*136 FILLER_0_1_3
*137 FILLER_0_1_55
*138 FILLER_0_1_57
*139 FILLER_0_1_81
*140 FILLER_0_2_15
*141 FILLER_0_2_26
*142 FILLER_0_2_29
*143 FILLER_0_2_3
*144 FILLER_0_2_54
*145 FILLER_0_2_62
*146 FILLER_0_2_66
*147 FILLER_0_2_78
*148 FILLER_0_2_82
*149 FILLER_0_3_27
*150 FILLER_0_3_40
*151 FILLER_0_3_65
*152 FILLER_0_3_77
*153 FILLER_0_4_11
*154 FILLER_0_4_26
*155 FILLER_0_4_29
*156 FILLER_0_4_3
*157 FILLER_0_4_41
*158 FILLER_0_4_53
*159 FILLER_0_5_26
*160 FILLER_0_5_55
*161 FILLER_0_5_65
*162 FILLER_0_5_77
*163 FILLER_0_6_27
*164 FILLER_0_6_47
*165 FILLER_0_6_53
*166 FILLER_0_6_62
*167 FILLER_0_6_72
*168 FILLER_0_6_78
*169 FILLER_0_7_3
*170 FILLER_0_7_34
*171 FILLER_0_7_60
*172 FILLER_0_7_68
*173 FILLER_0_8_27
*174 FILLER_0_8_29
*175 FILLER_0_8_48
*176 FILLER_0_8_60
*177 FILLER_0_8_67
*178 FILLER_0_8_77
*179 FILLER_0_9_15
*180 FILLER_0_9_3
*181 FILLER_0_9_51
*182 FILLER_0_9_55
*183 FILLER_0_9_73
*184 FILLER_0_9_81
*185 PHY_0
*186 PHY_1
*187 PHY_10
*188 PHY_11
*189 PHY_12
*190 PHY_13
*191 PHY_14
*192 PHY_15
*193 PHY_16
*194 PHY_17
*195 PHY_18
*196 PHY_19
*197 PHY_2
*198 PHY_20
*199 PHY_21
*200 PHY_22
*201 PHY_23
*202 PHY_24
*203 PHY_25
*204 PHY_26
*205 PHY_27
*206 PHY_3
*207 PHY_4
*208 PHY_5
*209 PHY_6
*210 PHY_7
*211 PHY_8
*212 PHY_9
*213 TAP_28
*214 TAP_29
*215 TAP_30
*216 TAP_31
*217 TAP_32
*218 TAP_33
*219 TAP_34
*220 TAP_35
*221 TAP_36
*222 TAP_37
*223 TAP_38
*224 TAP_39
*225 TAP_40
*226 TAP_41
*227 TAP_42
*228 TAP_43
*229 _062_
*230 _063_
*231 _064_
*232 _065_
*233 _066_
*234 _067_
*235 _068_
*236 _069_
*237 _070_
*238 _071_
*239 _072_
*240 _073_
*241 _074_
*242 _075_
*243 _076_
*244 _077_
*245 _078_
*246 _079_
*247 _080_
*248 _081_
*249 _082_
*250 _083_
*251 _084_
*252 _085_
*253 _086_
*254 _087_
*255 _088_
*256 _089_
*257 _090_
*258 _091_
*259 _092_
*260 _093_
*261 _094_
*262 _095_
*263 _096_
*264 _097_
*265 _098_
*266 _099_
*267 _100_
*268 _101_
*269 _102_
*270 _103_
*271 _104_
*272 _105_
*273 _106_
*274 _107_
*275 _108_
*276 _109_
*277 _110_
*278 _111_
*279 _112_
*280 _113_
*281 _114_
*282 _115_
*283 _116_
*284 _117_
*285 _118_
*286 _119_
*287 _120_
*288 _121_
*289 _122_
*290 _123_
*291 _124_
*292 _125_
*293 _126_
*294 _127_
*295 _128_
*296 _129_
*297 _130_
*298 _131_
*299 _132_
*300 _133_
*301 _134_
*302 _135_
*303 _136_
*304 clkbuf_0_clk
*305 clkbuf_1_0__f_clk
*306 clkbuf_1_1__f_clk
*307 hold4
*308 hold5
*309 hold6
*310 hold7
*311 input1
*312 input2
*313 input3
*314 input4
*315 input5
*316 output6
*317 output7
*318 rebuffer1
*319 rebuffer2
*320 rebuffer3

*PORTS
DIVIDE_BY_N[0] I
DIVIDE_BY_N[1] I
DIVIDE_BY_N[2] I
DIVIDE_BY_N[3] I
clk I
comb_out O
rst I
sync_out O

*D_NET *1 0.00150299
*CONN
*P DIVIDE_BY_N[0] I
*I *311:A I *D sky130_fd_sc_hd__buf_4
*CAP
1 DIVIDE_BY_N[0] 0.000751495
2 *311:A 0
3 *1:9 0.000751495
*RES
1 DIVIDE_BY_N[0] *1:9 31.1986 
2 *1:9 *311:A 23 
*END

*D_NET *2 0.000901355
*CONN
*P DIVIDE_BY_N[1] I
*I *312:A I *D sky130_fd_sc_hd__clkbuf_2
*CAP
1 DIVIDE_BY_N[1] 0.000450678
2 *312:A 0.000450678
3 *312:A *49:47 0
*RES
1 DIVIDE_BY_N[1] *312:A 47.5907 
*END

*D_NET *3 0.000854477
*CONN
*P DIVIDE_BY_N[2] I
*I *313:A I *D sky130_fd_sc_hd__clkbuf_2
*CAP
1 DIVIDE_BY_N[2] 0.000427239
2 *313:A 0
3 *3:13 0.000427239
*RES
1 DIVIDE_BY_N[2] *3:13 28.7276 
2 *3:13 *313:A 23 
*END

*D_NET *4 0.000725514
*CONN
*P DIVIDE_BY_N[3] I
*I *314:A I *D sky130_fd_sc_hd__buf_6
*CAP
1 DIVIDE_BY_N[3] 0.000362757
2 *314:A 0
3 *4:13 0.000362757
4 *4:13 *298:CLK 0
*RES
1 DIVIDE_BY_N[3] *4:13 28.0617 
2 *4:13 *314:A 23 
*END

*D_NET *7 0.00753395
*CONN
*P clk I
*I *304:A I *D sky130_fd_sc_hd__clkbuf_16
*CAP
1 clk 0.000557907
2 *304:A 0
3 *7:15 0.000703916
4 *7:11 0.00238046
5 *7:7 0.00223445
6 *7:11 *74:16 4.21784e-05
7 *7:11 *74:43 8.28376e-05
8 *7:11 *74:56 6.67986e-05
9 *7:15 *306:A 9.20193e-05
10 *7:15 *49:71 0.000246248
11 *7:15 *73:12 0.00112714
*RES
1 clk *7:7 27.5736 
2 *7:7 *7:11 38.0136 
3 *7:11 *7:15 31.3436 
4 *7:15 *304:A 23 
*END

*D_NET *8 0.00115532
*CONN
*P comb_out O
*I *316:X O *D sky130_fd_sc_hd__buf_6
*CAP
1 comb_out 0.000281146
2 *316:X 0.000296513
3 *8:8 0.00057766
*RES
1 *316:X *8:8 44.3075 
2 *8:8 comb_out 9.08267 
*END

*D_NET *9 0.00140289
*CONN
*P rst I
*I *315:A I *D sky130_fd_sc_hd__clkbuf_1
*CAP
1 rst 0.000605815
2 *315:A 0
3 *9:15 0.000605815
4 *9:15 *97:35 0.000191255
*RES
1 rst *9:15 28.775 
2 *9:15 *315:A 23 
*END

*D_NET *10 0.00145652
*CONN
*P sync_out O
*I *317:X O *D sky130_fd_sc_hd__clkbuf_4
*CAP
1 sync_out 0.000107983
2 *317:X 0.000620278
3 *10:10 0.000728261
*RES
1 *317:X *10:10 49.0718 
2 *10:10 sync_out 8.4144 
*END

*D_NET *11 0.00052995
*CONN
*I *292:D I *D sky130_fd_sc_hd__dfxtp_1
*I *254:X O *D sky130_fd_sc_hd__o211a_1
*CAP
1 *292:D 1.06403e-05
2 *254:X 0.000210401
3 *11:10 0.000221042
4 *292:D *251:A 8.15899e-06
5 *292:D *74:66 4.9054e-06
6 *11:10 *46:32 5.70419e-05
7 *11:10 *47:12 1.77609e-05
8 *11:10 *93:10 0
*RES
1 *254:X *11:10 41.3557 
2 *11:10 *292:D 38.1916 
*END

*D_NET *12 0.000538002
*CONN
*I *293:D I *D sky130_fd_sc_hd__dfxtp_2
*I *257:X O *D sky130_fd_sc_hd__o2111a_1
*CAP
1 *293:D 1.26909e-05
2 *257:X 9.8477e-05
3 *12:10 0.000111168
4 *293:D *78:6 8.15899e-06
5 *12:10 *46:28 0.000223315
6 *12:10 *50:10 8.41916e-05
*RES
1 *257:X *12:10 40.8793 
2 *12:10 *293:D 38.1916 
*END

*D_NET *13 0.000325622
*CONN
*I *294:D I *D sky130_fd_sc_hd__dfxtp_1
*I *261:X O *D sky130_fd_sc_hd__o211a_1
*CAP
1 *294:D 0.000108654
2 *261:X 0.000108654
3 *294:D *261:A2 5.3304e-05
4 *294:D *74:74 5.50106e-05
*RES
1 *261:X *294:D 47.8902 
*END

*D_NET *14 0.000649064
*CONN
*I *295:D I *D sky130_fd_sc_hd__dfxtp_1
*I *265:X O *D sky130_fd_sc_hd__o211a_1
*CAP
1 *295:D 0.000137921
2 *265:X 5.62262e-05
3 *14:8 0.000194147
4 *295:D *49:71 0.000172884
5 *14:8 *41:57 8.78864e-05
*RES
1 *265:X *14:8 39.2014 
2 *14:8 *295:D 41.4437 
*END

*D_NET *15 0.00111684
*CONN
*I *296:D I *D sky130_fd_sc_hd__dfxtp_1
*I *268:X O *D sky130_fd_sc_hd__o2111a_1
*CAP
1 *296:D 0
2 *268:X 0.000290799
3 *15:6 0.000290799
4 *15:6 *74:16 0.000503035
5 *15:6 *81:8 3.22051e-05
*RES
1 *268:X *15:6 29.3852 
2 *15:6 *296:D 23 
*END

*D_NET *16 0.000896608
*CONN
*I *297:D I *D sky130_fd_sc_hd__dfxtp_1
*I *272:X O *D sky130_fd_sc_hd__o211a_1
*CAP
1 *297:D 0
2 *272:X 0.000339356
3 *16:10 0.000339356
4 *16:10 *41:47 0.000217896
*RES
1 *272:X *16:10 30.0273 
2 *16:10 *297:D 23 
*END

*D_NET *17 0.00102896
*CONN
*I *298:D I *D sky130_fd_sc_hd__dfxtp_1
*I *276:X O *D sky130_fd_sc_hd__o211a_1
*CAP
1 *298:D 0
2 *276:X 0.000373707
3 *17:6 0.000373707
4 *17:6 *41:47 0.000226238
5 *17:6 *81:61 5.53064e-05
*RES
1 *276:X *17:6 29.3852 
2 *17:6 *298:D 23 
*END

*D_NET *18 0.000703552
*CONN
*I *299:D I *D sky130_fd_sc_hd__dfxtp_1
*I *279:X O *D sky130_fd_sc_hd__o2111a_1
*CAP
1 *299:D 2.49929e-06
2 *279:X 0.000258019
3 *18:12 0.000260518
4 *299:D *48:8 1.78238e-05
5 *299:D *75:53 1.78697e-05
6 *18:12 *278:B 0.000146822
*RES
1 *279:X *18:12 41.7493 
2 *18:12 *299:D 38.1916 
*END

*D_NET *19 0.000922975
*CONN
*I *300:D I *D sky130_fd_sc_hd__dfxtp_1
*I *281:X O *D sky130_fd_sc_hd__o211a_1
*CAP
1 *300:D 0.000175893
2 *281:X 5.35983e-05
3 *19:8 0.000229491
4 *300:D *300:CLK 0.000266898
5 *300:D *75:53 5.3304e-05
6 *19:8 *75:59 0.000113235
7 *19:8 *97:35 3.0556e-05
*RES
1 *281:X *19:8 39.5536 
2 *19:8 *300:D 41.5266 
*END

*D_NET *20 0.000341185
*CONN
*I *301:D I *D sky130_fd_sc_hd__dfxtp_1
*I *285:X O *D sky130_fd_sc_hd__o211a_1
*CAP
1 *301:D 1.26271e-05
2 *285:X 0.000149748
3 *20:10 0.000162375
4 *301:D *301:CLK 1.64354e-05
*RES
1 *285:X *20:10 40.175 
2 *20:10 *301:D 38.1916 
*END

*D_NET *21 0.000281863
*CONN
*I *302:D I *D sky130_fd_sc_hd__dfxtp_1
*I *287:X O *D sky130_fd_sc_hd__o211a_1
*CAP
1 *302:D 0.000110384
2 *287:X 0.000110384
3 *302:D *302:CLK 3.22051e-05
4 *302:D *77:25 2.88911e-05
*RES
1 *287:X *302:D 47.8902 
*END

*D_NET *22 0.00232483
*CONN
*I *320:A I *D sky130_fd_sc_hd__dlygate4sd1_1
*I *290:B I *D sky130_fd_sc_hd__and3_1
*I *288:X O *D sky130_fd_sc_hd__or4_4
*CAP
1 *320:A 0.000265809
2 *290:B 0.000371339
3 *288:X 0
4 *22:6 0.000637148
5 *290:B *238:B 0.000186041
6 *290:B *35:10 0.000208304
7 *290:B *93:24 1.13812e-05
8 *290:B *93:33 2.2385e-05
9 *290:B *93:61 3.76343e-05
10 *290:B *94:36 0.000217687
11 *320:A *35:10 0.000337938
12 *320:A *88:8 2.34077e-05
13 *320:A *93:61 5.75756e-06
*RES
1 *288:X *22:6 38 
2 *22:6 *290:B 44.7736 
3 *22:6 *320:A 43.8207 
*END

*D_NET *23 0.00498769
*CONN
*I *231:A2 I *D sky130_fd_sc_hd__a21oi_1
*I *290:C I *D sky130_fd_sc_hd__and3_1
*I *289:Y O *D sky130_fd_sc_hd__o31ai_1
*CAP
1 *231:A2 0
2 *290:C 0.000153897
3 *289:Y 0.000592409
4 *23:29 0.000843026
5 *23:10 0.00158933
6 *290:C *290:A 2.39244e-05
7 *290:C *24:8 0.000162416
8 *290:C *26:6 4.02493e-05
9 *290:C *93:33 3.28604e-05
10 *290:C *93:61 1.00286e-05
11 *23:10 *288:A 8.48502e-06
12 *23:10 *289:A3 0.000181251
13 *23:10 *289:B1 6.17437e-06
14 *23:10 *93:37 0.000296575
15 *23:10 *94:12 3.00511e-05
16 *23:29 *231:A1 3.96305e-05
17 *23:29 *319:A 6.08617e-05
18 *23:29 *24:8 0.000290908
19 *23:29 *42:12 1.1258e-05
20 *23:29 *80:51 0.00058785
21 *23:29 *88:8 5.75756e-06
22 *23:29 *93:61 2.07427e-05
*RES
1 *289:Y *23:10 46.1407 
2 *23:10 *290:C 40.7136 
3 *23:10 *23:29 29.065 
4 *23:29 *231:A2 23 
*END

*D_NET *24 0.00304595
*CONN
*I *248:A1 I *D sky130_fd_sc_hd__o21bai_1
*I *233:A I *D sky130_fd_sc_hd__or4_4
*I *290:X O *D sky130_fd_sc_hd__and3_1
*CAP
1 *248:A1 0.000201436
2 *233:A 0.00010531
3 *290:X 0.000300979
4 *24:8 0.000607725
5 *233:A *233:D 0.000106486
6 *233:A *28:16 9.80421e-05
7 *233:A *28:24 0.000176441
8 *248:A1 *248:A2 0.000177334
9 *248:A1 *27:8 8.78864e-05
10 *248:A1 *44:10 5.3304e-05
11 *24:8 *27:8 0.000657784
12 *24:8 *88:8 1.98991e-05
13 *290:C *24:8 0.000162416
14 *23:29 *24:8 0.000290908
*RES
1 *290:X *24:8 46.9486 
2 *24:8 *233:A 41.5007 
3 *24:8 *248:A1 41.9357 
*END

*D_NET *25 0.00231883
*CONN
*I *232:A1 I *D sky130_fd_sc_hd__a21oi_1
*I *230:B I *D sky130_fd_sc_hd__and3_1
*I *238:B I *D sky130_fd_sc_hd__nor2_1
*I *291:X O *D sky130_fd_sc_hd__or3_1
*CAP
1 *232:A1 5.61706e-05
2 *230:B 0
3 *238:B 0.000348758
4 *291:X 0.000165274
5 *25:16 0.000472634
6 *25:12 0.000180046
7 *25:10 0.000165274
8 *232:A1 *230:A 2.74098e-05
9 *232:A1 *26:21 5.58003e-05
10 *232:A1 *53:10 5.3304e-05
11 *232:A1 *79:36 7.86509e-06
12 *238:B *290:A 0.000217125
13 *238:B *26:6 1.22232e-05
14 *238:B *35:10 1.09349e-05
15 *238:B *87:78 3.19833e-05
16 *25:10 *29:10 7.19778e-05
17 *25:10 *94:12 5.58003e-05
18 *25:16 *290:A 1.12796e-05
19 *25:16 *26:21 0.000188927
20 *290:B *238:B 0.000186041
*RES
1 *291:X *25:10 40.8793 
2 *25:10 *25:12 15 
3 *25:12 *25:16 2.9 
4 *25:16 *238:B 30.3536 
5 *25:16 *230:B 23 
6 *25:12 *232:A1 24.595 
*END

*D_NET *26 0.00145191
*CONN
*I *232:A2 I *D sky130_fd_sc_hd__a21oi_1
*I *230:C I *D sky130_fd_sc_hd__and3_1
*I *229:Y O *D sky130_fd_sc_hd__o21ai_1
*CAP
1 *232:A2 0
2 *230:C 0
3 *229:Y 0.000309518
4 *26:21 0.0001216
5 *26:6 0.000431117
6 *26:6 *290:A 7.32977e-05
7 *26:21 *230:A 0.000143423
8 *26:21 *80:30 1.13812e-05
9 *26:21 *80:51 6.437e-05
10 *232:A1 *26:21 5.58003e-05
11 *238:B *26:6 1.22232e-05
12 *290:C *26:6 4.02493e-05
13 *25:16 *26:21 0.000188927
*RES
1 *229:Y *26:6 26.8218 
2 *26:6 *230:C 23 
3 *26:6 *26:21 33.6561 
4 *26:21 *232:A2 23 
*END

*D_NET *27 0.00309409
*CONN
*I *248:A2 I *D sky130_fd_sc_hd__o21bai_1
*I *233:B I *D sky130_fd_sc_hd__or4_4
*I *230:X O *D sky130_fd_sc_hd__and3_1
*CAP
1 *248:A2 0.000274028
2 *233:B 0.00012964
3 *230:X 0.000322392
4 *27:8 0.00072606
5 *233:B *28:16 6.71323e-05
6 *233:B *28:24 0.000135575
7 *248:A2 *44:10 1.47709e-05
8 *27:8 *80:30 6.33771e-05
9 *27:8 *80:51 0.000438113
10 *248:A1 *248:A2 0.000177334
11 *248:A1 *27:8 8.78864e-05
12 *24:8 *27:8 0.000657784
*RES
1 *230:X *27:8 48.005 
2 *27:8 *233:B 40.0507 
3 *27:8 *248:A2 42.9093 
*END

*D_NET *28 0.00247569
*CONN
*I *233:C I *D sky130_fd_sc_hd__or4_4
*I *248:B1_N I *D sky130_fd_sc_hd__o21bai_1
*I *231:Y O *D sky130_fd_sc_hd__a21oi_1
*CAP
1 *233:C 0
2 *248:B1_N 0
3 *231:Y 0.000214713
4 *28:24 0.000258588
5 *28:16 0.000520118
6 *28:10 0.000476243
7 *28:10 *231:A1 5.3304e-05
8 *28:10 *41:130 0.00026745
9 *28:16 *233:D 4.57717e-05
10 *28:16 *242:A 3.23857e-06
11 *28:16 *30:10 0.000102389
12 *28:16 *43:16 2.47579e-05
13 *28:24 *35:10 3.19287e-05
14 *233:A *28:16 9.80421e-05
15 *233:A *28:24 0.000176441
16 *233:B *28:16 6.71323e-05
17 *233:B *28:24 0.000135575
*RES
1 *231:Y *28:10 42.2879 
2 *28:10 *28:16 20.5048 
3 *28:16 *28:24 35.4116 
4 *28:24 *248:B1_N 23 
5 *28:16 *233:C 23 
*END

*D_NET *29 0.00205564
*CONN
*I *233:D I *D sky130_fd_sc_hd__or4_4
*I *232:Y O *D sky130_fd_sc_hd__a21oi_1
*CAP
1 *233:D 0.00016659
2 *232:Y 0.000575634
3 *29:10 0.000742224
4 *29:10 *53:10 0.000136798
5 *29:10 *87:54 2.23884e-05
6 *29:10 *99:8 2.23754e-05
7 *29:10 *100:8 0.000165394
8 *233:A *233:D 0.000106486
9 *25:10 *29:10 7.19778e-05
10 *28:16 *233:D 4.57717e-05
*RES
1 *232:Y *29:10 48.0464 
2 *29:10 *233:D 41.48 
*END

*D_NET *30 0.00174331
*CONN
*I *243:A_N I *D sky130_fd_sc_hd__and4b_1
*I *249:A1 I *D sky130_fd_sc_hd__o211a_1
*I *233:X O *D sky130_fd_sc_hd__or4_4
*CAP
1 *243:A_N 0.000464143
2 *249:A1 0
3 *233:X 0.000216919
4 *30:12 0.000464143
5 *30:10 0.000216919
6 *243:A_N *243:C 4.57187e-05
7 *243:A_N *243:D 1.16872e-05
8 *243:A_N *249:A2 0.000141819
9 *243:A_N *249:C1 2.65505e-05
10 *243:A_N *44:10 1.34995e-05
11 *30:10 *43:16 3.95187e-05
12 *28:16 *30:10 0.000102389
*RES
1 *233:X *30:10 41.3557 
2 *30:10 *30:12 15 
3 *30:12 *249:A1 23 
4 *30:12 *243:A_N 30.8507 
*END

*D_NET *31 0.00159079
*CONN
*I *246:B I *D sky130_fd_sc_hd__nand2_1
*I *235:B I *D sky130_fd_sc_hd__nor2_1
*I *236:B2 I *D sky130_fd_sc_hd__a2bb2o_1
*I *234:X O *D sky130_fd_sc_hd__xor2_1
*CAP
1 *246:B 0.000294519
2 *235:B 3.77182e-05
3 *236:B2 0
4 *234:X 5.54727e-05
5 *31:14 6.78952e-05
6 *31:12 0.000481076
7 *31:8 0.000211853
8 *235:B *236:B1 5.79559e-05
9 *235:B *42:12 0.000102389
10 *235:B *78:79 5.47983e-06
11 *235:B *78:90 1.3523e-05
12 *246:B *236:B1 2.86326e-05
13 *246:B *246:A 1.46286e-05
14 *246:B *42:12 1.08287e-05
15 *246:B *78:90 5.65662e-05
16 *31:8 *87:35 8.78864e-05
17 *31:12 *236:A2_N 1.83408e-05
18 *31:12 *42:12 2.72413e-05
19 *31:14 *78:79 1.8788e-05
*RES
1 *234:X *31:8 39.2014 
2 *31:8 *31:12 17.0507 
3 *31:12 *31:14 0.849286 
4 *31:14 *236:B2 23 
5 *31:14 *235:B 24.595 
6 *31:12 *246:B 27.6814 
*END

*D_NET *32 0.00068822
*CONN
*I *247:A1 I *D sky130_fd_sc_hd__o21a_1
*I *237:A I *D sky130_fd_sc_hd__nor2_1
*I *235:Y O *D sky130_fd_sc_hd__nor2_1
*CAP
1 *247:A1 7.81466e-05
2 *237:A 0
3 *235:Y 0.000111488
4 *32:16 0.000145843
5 *32:10 0.000179184
6 *247:A1 *237:B 3.7685e-05
7 *247:A1 *34:10 3.22051e-05
8 *32:10 *42:12 5.81185e-05
9 *32:10 *98:20 3.76854e-05
10 *32:16 *237:B 7.86509e-06
*RES
1 *235:Y *32:10 39.8229 
2 *32:10 *32:16 16.4707 
3 *32:16 *237:A 23 
4 *32:16 *247:A1 25.0714 
*END

*D_NET *33 0.000760904
*CONN
*I *237:B I *D sky130_fd_sc_hd__nor2_1
*I *247:A2 I *D sky130_fd_sc_hd__o21a_1
*I *236:X O *D sky130_fd_sc_hd__a2bb2o_1
*CAP
1 *237:B 5.53949e-05
2 *247:A2 1.16827e-05
3 *236:X 3.29455e-05
4 *33:14 0.000182239
5 *33:8 0.000148107
6 *237:B *34:10 1.08287e-05
7 *33:8 *242:B 8.78864e-05
8 *33:8 *42:12 8.78864e-05
9 *33:14 *242:B 3.86731e-05
10 *33:14 *34:10 9.87985e-06
11 *33:14 *87:27 4.98295e-05
12 *247:A1 *237:B 3.7685e-05
13 *32:16 *237:B 7.86509e-06
*RES
1 *236:X *33:8 39.2014 
2 *33:8 *33:14 17.0714 
3 *33:14 *247:A2 23.4971 
4 *33:14 *237:B 24.595 
*END

*D_NET *34 0.000751708
*CONN
*I *243:B I *D sky130_fd_sc_hd__and4b_1
*I *237:Y O *D sky130_fd_sc_hd__nor2_1
*CAP
1 *243:B 0
2 *237:Y 0.000252179
3 *34:10 0.000252179
4 *34:10 *87:12 0.000139882
5 *34:10 *87:27 5.45541e-05
6 *237:B *34:10 1.08287e-05
7 *247:A1 *34:10 3.22051e-05
8 *33:14 *34:10 9.87985e-06
*RES
1 *237:Y *34:10 42.4329 
2 *34:10 *243:B 38 
*END

*D_NET *35 0.00324379
*CONN
*I *279:A1 I *D sky130_fd_sc_hd__o2111a_1
*I *245:A I *D sky130_fd_sc_hd__clkbuf_4
*I *241:A I *D sky130_fd_sc_hd__nor2_1
*I *238:Y O *D sky130_fd_sc_hd__nor2_1
*CAP
1 *279:A1 0
2 *245:A 0
3 *241:A 2.70595e-05
4 *238:Y 0.000545979
5 *35:42 0.000197018
6 *35:29 0.000383223
7 *35:14 0.000279977
8 *35:10 0.000612691
9 *241:A *38:12 3.26241e-05
10 *35:10 *77:25 3.27447e-05
11 *35:10 *87:62 4.587e-05
12 *35:10 *87:78 0.000102389
13 *35:29 *85:20 0.000100486
14 *35:42 *41:8 2.193e-05
15 *35:42 *85:20 0.000272697
16 *238:B *35:10 1.09349e-05
17 *290:B *35:10 0.000208304
18 *320:A *35:10 0.000337938
19 *28:24 *35:10 3.19287e-05
*RES
1 *238:Y *35:10 49.7554 
2 *35:10 *35:14 1.29464 
3 *35:14 *241:A 38.6214 
4 *35:14 *35:29 18.3557 
5 *35:29 *245:A 23 
6 *35:29 *35:42 34.4121 
7 *35:42 *279:A1 23 
*END

*D_NET *36 0.00221456
*CONN
*I *240:D I *D sky130_fd_sc_hd__or4_1
*I *239:X O *D sky130_fd_sc_hd__or4_1
*CAP
1 *240:D 6.6453e-05
2 *239:X 0.000622012
3 *36:10 0.000688465
4 *240:D *85:56 5.5792e-05
5 *36:10 *274:A 3.18142e-05
6 *36:10 *306:A 0.000380252
7 *36:10 *60:31 4.94924e-05
8 *36:10 *84:45 0.000308635
9 *36:10 *86:40 1.16455e-05
*RES
1 *239:X *36:10 49.2893 
2 *36:10 *240:D 39.0979 
*END

*D_NET *37 0.000156781
*CONN
*I *241:B I *D sky130_fd_sc_hd__nor2_1
*I *240:X O *D sky130_fd_sc_hd__or4_1
*CAP
1 *241:B 7.36841e-05
2 *240:X 7.36841e-05
3 *241:B *38:12 6.17437e-06
4 *241:B *85:56 3.23857e-06
*RES
1 *240:X *241:B 47.4707 
*END

*D_NET *38 0.00243313
*CONN
*I *243:C I *D sky130_fd_sc_hd__and4b_1
*I *249:C1 I *D sky130_fd_sc_hd__o211a_1
*I *241:Y O *D sky130_fd_sc_hd__nor2_1
*CAP
1 *243:C 0.000178698
2 *249:C1 4.79192e-05
3 *241:Y 0.000719778
4 *38:12 0.000946395
5 *243:C *243:D 2.35426e-05
6 *249:C1 *249:A2 1.24376e-05
7 *249:C1 *44:10 3.85196e-05
8 *38:12 *249:A2 6.57815e-06
9 *38:12 *44:10 0.000348199
10 *241:A *38:12 3.26241e-05
11 *241:B *38:12 6.17437e-06
12 *243:A_N *243:C 4.57187e-05
13 *243:A_N *249:C1 2.65505e-05
*RES
1 *241:Y *38:12 34.2893 
2 *38:12 *249:C1 24.4707 
3 *38:12 *243:C 26.0243 
*END

*D_NET *39 0.000707867
*CONN
*I *243:D I *D sky130_fd_sc_hd__and4b_1
*I *242:Y O *D sky130_fd_sc_hd__nand2_1
*CAP
1 *243:D 1.22438e-05
2 *242:Y 0.000137813
3 *39:10 0.000150056
4 *39:10 *43:16 9.91548e-05
5 *39:10 *46:16 0.000137754
6 *39:10 *87:12 0.000135616
7 *243:A_N *243:D 1.16872e-05
8 *243:C *243:D 2.35426e-05
*RES
1 *242:Y *39:10 41.0036 
2 *39:10 *243:D 38.2745 
*END

*D_NET *40 0.000309809
*CONN
*I *244:A I *D sky130_fd_sc_hd__clkbuf_2
*I *243:X O *D sky130_fd_sc_hd__and4b_1
*CAP
1 *244:A 0
2 *243:X 4.04427e-05
3 *40:8 4.04427e-05
4 *40:8 *41:130 0.000113398
5 *40:8 *46:16 0.000115526
*RES
1 *243:X *40:8 39.5536 
2 *40:8 *244:A 38 
*END

*D_NET *41 0.0180596
*CONN
*I *281:A1 I *D sky130_fd_sc_hd__o211a_1
*I *261:A1 I *D sky130_fd_sc_hd__o211a_1
*I *287:A1 I *D sky130_fd_sc_hd__o211a_1
*I *276:A1 I *D sky130_fd_sc_hd__o211a_1
*I *272:A1 I *D sky130_fd_sc_hd__o211a_1
*I *265:A1 I *D sky130_fd_sc_hd__o211a_1
*I *257:A1 I *D sky130_fd_sc_hd__o2111a_1
*I *254:A1 I *D sky130_fd_sc_hd__o211a_1
*I *268:A1 I *D sky130_fd_sc_hd__o2111a_1
*I *285:A1 I *D sky130_fd_sc_hd__o211a_1
*I *245:X O *D sky130_fd_sc_hd__clkbuf_4
*CAP
1 *281:A1 0.000189194
2 *261:A1 0
3 *287:A1 3.84577e-05
4 *276:A1 8.08228e-05
5 *272:A1 0
6 *265:A1 0
7 *257:A1 0.000124777
8 *254:A1 0
9 *268:A1 1.13421e-05
10 *285:A1 0.000122856
11 *245:X 0
12 *41:130 0.000930336
13 *41:120 0.00148404
14 *41:90 0.000164658
15 *41:70 0.000283061
16 *41:57 0.000485339
17 *41:51 0.000685583
18 *41:47 0.000907023
19 *41:31 0.00109584
20 *41:21 0.000637725
21 *41:8 0.000909738
22 *41:4 0.000865335
23 *257:A1 *257:D1 0.000416045
24 *257:A1 *46:32 0.000757377
25 *268:A1 *308:A 5.50049e-05
26 *268:A1 *49:39 2.4754e-05
27 *276:A1 *81:61 6.20677e-05
28 *276:A1 *83:8 1.83327e-05
29 *281:A1 *303:D 5.3304e-05
30 *281:A1 *46:16 1.51481e-05
31 *281:A1 *75:59 2.35118e-06
32 *281:A1 *97:10 0.000112455
33 *281:A1 *97:35 6.07306e-05
34 *285:A1 *75:23 0.000101209
35 *287:A1 *302:CLK 5.58003e-05
36 *287:A1 *77:25 8.06925e-06
37 *41:8 *284:B 0.000182222
38 *41:8 *69:6 0.000201311
39 *41:8 *84:33 0.000133384
40 *41:8 *84:37 0.000274402
41 *41:8 *85:20 0.000498644
42 *41:8 *85:22 0.000140927
43 *41:8 *85:36 0.000185368
44 *41:21 *285:A2 1.223e-05
45 *41:21 *302:CLK 0.000250596
46 *41:21 *75:23 0.00015385
47 *41:31 *239:C 3.71196e-05
48 *41:31 *273:A 3.64246e-05
49 *41:31 *285:A2 1.50326e-05
50 *41:31 *46:77 4.17656e-05
51 *41:31 *81:61 0.000170656
52 *41:31 *83:23 7.50374e-05
53 *41:47 *272:B1 9.84794e-05
54 *41:47 *62:10 0
55 *41:47 *69:14 0.000220948
56 *41:47 *82:10 7.51542e-05
57 *41:47 *82:26 0
58 *41:47 *83:8 1.83408e-05
59 *41:47 *91:10 0.000137744
60 *41:51 *265:A2 4.08664e-05
61 *41:51 *272:B1 1.12268e-05
62 *41:51 *46:62 0.000221117
63 *41:57 *46:58 0.000555829
64 *41:57 *49:28 2.49733e-05
65 *41:57 *74:49 0.00011619
66 *41:70 *254:A2 1.12349e-05
67 *41:70 *257:D1 0.000143249
68 *41:70 *268:D1 0
69 *41:70 *308:A 0.000173025
70 *41:70 *46:32 2.46906e-05
71 *41:70 *46:43 5.32755e-05
72 *41:70 *49:39 0.000451801
73 *41:70 *49:47 5.56279e-05
74 *41:90 *265:A2 0.000186856
75 *41:90 *46:58 0
76 *41:90 *73:12 1.50445e-05
77 *41:120 *45:22 0.000231039
78 *41:120 *46:6 7.40718e-05
79 *41:120 *46:16 0.000100061
80 *41:130 *261:A2 2.34321e-05
81 *41:130 *43:16 0.000183102
82 *41:130 *46:16 0.00042108
83 *41:130 *74:74 1.24376e-05
84 *41:130 *78:60 0.000168515
85 *41:130 *79:36 8.71559e-05
86 *41:130 *87:54 2.04934e-05
87 *14:8 *41:57 8.78864e-05
88 *16:10 *41:47 0.000217896
89 *17:6 *41:47 0.000226238
90 *28:10 *41:130 0.00026745
91 *35:42 *41:8 2.193e-05
92 *40:8 *41:130 0.000113398
*RES
1 *245:X *41:4 23 
2 *41:4 *41:8 28.9614 
3 *41:8 *285:A1 40.9621 
4 *41:8 *41:21 6.75286 
5 *41:21 *41:31 21.6907 
6 *41:31 *41:47 45.1629 
7 *41:47 *41:51 3.85286 
8 *41:51 *41:57 38.2443 
9 *41:57 *268:A1 23.6214 
10 *41:57 *41:70 7.33286 
11 *41:70 *254:A1 23 
12 *41:70 *257:A1 31.2443 
13 *41:51 *41:90 32.9 
14 *41:90 *265:A1 23 
15 *41:47 *272:A1 23 
16 *41:31 *276:A1 24.5743 
17 *41:21 *287:A1 38.8596 
18 *41:4 *41:120 22.7679 
19 *41:120 *41:130 33.3114 
20 *41:130 *261:A1 23 
21 *41:120 *281:A1 41.5836 
*END

*D_NET *42 0.00132214
*CONN
*I *247:B1 I *D sky130_fd_sc_hd__o21a_1
*I *246:Y O *D sky130_fd_sc_hd__nand2_1
*CAP
1 *247:B1 0
2 *246:Y 0.000344626
3 *42:12 0.000344626
4 *42:12 *236:A2_N 9.89901e-05
5 *42:12 *246:A 5.56356e-05
6 *42:12 *78:90 4.06559e-05
7 *42:12 *87:27 0.000139882
8 *235:B *42:12 0.000102389
9 *246:B *42:12 1.08287e-05
10 *23:29 *42:12 1.1258e-05
11 *31:12 *42:12 2.72413e-05
12 *32:10 *42:12 5.81185e-05
13 *33:8 *42:12 8.78864e-05
*RES
1 *246:Y *42:12 45.7886 
2 *42:12 *247:B1 38 
*END

*D_NET *43 0.0015108
*CONN
*I *249:A2 I *D sky130_fd_sc_hd__o211a_1
*I *247:X O *D sky130_fd_sc_hd__o21a_1
*CAP
1 *249:A2 3.86774e-05
2 *247:X 0.000371929
3 *43:16 0.000410606
4 *249:A2 *44:10 4.344e-05
5 *43:16 *242:A 9.79925e-05
6 *43:16 *242:B 2.83509e-05
7 *43:16 *87:27 1.24376e-05
8 *243:A_N *249:A2 0.000141819
9 *249:C1 *249:A2 1.24376e-05
10 *28:16 *43:16 2.47579e-05
11 *30:10 *43:16 3.95187e-05
12 *38:12 *249:A2 6.57815e-06
13 *39:10 *43:16 9.91548e-05
14 *41:130 *43:16 0.000183102
*RES
1 *247:X *43:16 44.2764 
2 *43:16 *249:A2 39.595 
*END

*D_NET *44 0.00107579
*CONN
*I *249:B1 I *D sky130_fd_sc_hd__o211a_1
*I *248:Y O *D sky130_fd_sc_hd__o21bai_1
*CAP
1 *249:B1 0
2 *248:Y 0.000271501
3 *44:10 0.000271501
4 *44:10 *45:10 2.10502e-05
5 *243:A_N *44:10 1.34995e-05
6 *248:A1 *44:10 5.3304e-05
7 *248:A2 *44:10 1.47709e-05
8 *249:A2 *44:10 4.344e-05
9 *249:C1 *44:10 3.85196e-05
10 *38:12 *44:10 0.000348199
*RES
1 *248:Y *44:10 30.8093 
2 *44:10 *249:B1 23 
*END

*D_NET *45 0.00156436
*CONN
*I *250:A I *D sky130_fd_sc_hd__clkbuf_4
*I *279:A2 I *D sky130_fd_sc_hd__o2111a_1
*I *249:X O *D sky130_fd_sc_hd__o211a_1
*CAP
1 *250:A 0
2 *279:A2 0
3 *249:X 0.000156132
4 *45:22 0.000328076
5 *45:12 0.000328076
6 *45:10 0.000156132
7 *45:22 *278:B 4.98398e-05
8 *45:22 *67:6 1.12268e-05
9 *45:22 *84:12 3.26241e-05
10 *45:22 *84:27 0.00025016
11 *41:120 *45:22 0.000231039
12 *44:10 *45:10 2.10502e-05
*RES
1 *249:X *45:10 40.5271 
2 *45:10 *45:12 15 
3 *45:12 *45:22 37.6643 
4 *45:22 *279:A2 23 
5 *45:12 *250:A 23 
*END

*D_NET *46 0.0169654
*CONN
*I *281:A2 I *D sky130_fd_sc_hd__o211a_1
*I *261:A2 I *D sky130_fd_sc_hd__o211a_1
*I *257:A2 I *D sky130_fd_sc_hd__o2111a_1
*I *265:A2 I *D sky130_fd_sc_hd__o211a_1
*I *272:A2 I *D sky130_fd_sc_hd__o211a_1
*I *285:A2 I *D sky130_fd_sc_hd__o211a_1
*I *287:A2 I *D sky130_fd_sc_hd__o211a_1
*I *276:A2 I *D sky130_fd_sc_hd__o211a_1
*I *268:A2 I *D sky130_fd_sc_hd__o2111a_1
*I *254:A2 I *D sky130_fd_sc_hd__o211a_1
*I *250:X O *D sky130_fd_sc_hd__clkbuf_4
*CAP
1 *281:A2 0
2 *261:A2 0.000243543
3 *257:A2 0
4 *265:A2 0.000106229
5 *272:A2 0
6 *285:A2 0.000481449
7 *287:A2 3.73824e-05
8 *276:A2 2.99758e-05
9 *268:A2 1.91252e-05
10 *254:A2 2.07933e-05
11 *250:X 0.000100165
12 *46:137 0.000105871
13 *46:77 0.000767959
14 *46:66 0.000573451
15 *46:62 0.000388499
16 *46:58 0.000459941
17 *46:43 0.000569742
18 *46:32 0.000623825
19 *46:28 0.000989478
20 *46:16 0.00179221
21 *46:6 0.0010772
22 *261:A2 *261:B1 3.85196e-05
23 *261:A2 *74:74 4.05745e-05
24 *265:A2 *265:B1 1.8788e-05
25 *265:A2 *55:17 9.0936e-05
26 *265:A2 *55:31 3.7122e-06
27 *268:A2 *308:A 5.50106e-05
28 *268:A2 *90:10 5.3304e-05
29 *276:A2 *276:B1 3.86731e-05
30 *285:A2 *285:B1 5.3304e-05
31 *285:A2 *285:C1 1.35999e-05
32 *285:A2 *302:CLK 0.000121771
33 *285:A2 *49:18 0.000162741
34 *285:A2 *70:8 0.000113244
35 *285:A2 *71:10 8.57577e-05
36 *285:A2 *72:10 6.66613e-05
37 *285:A2 *75:23 9.44544e-05
38 *285:A2 *85:36 3.25507e-05
39 *46:16 *242:B 6.00824e-05
40 *46:16 *76:59 0.000164819
41 *46:16 *76:70 0.000168456
42 *46:16 *78:60 0.000302073
43 *46:16 *87:12 0.000149046
44 *46:16 *97:10 5.56279e-05
45 *46:28 *257:B1 2.98648e-05
46 *46:28 *257:D1 9.58908e-05
47 *46:28 *50:10 1.06805e-05
48 *46:28 *76:59 0.000108681
49 *46:28 *78:25 0.000134209
50 *46:28 *78:34 8.08108e-05
51 *46:28 *78:60 9.85694e-05
52 *46:32 *257:D1 2.4288e-05
53 *46:43 *308:A 0.000349025
54 *46:43 *49:47 2.93335e-05
55 *46:43 *90:10 9.5877e-05
56 *46:58 *272:B1 4.00259e-06
57 *46:58 *49:22 1.14452e-05
58 *46:58 *49:24 0.000300501
59 *46:58 *49:28 0.000316768
60 *46:62 *272:B1 4.09577e-05
61 *46:62 *55:31 2.81066e-05
62 *46:66 *270:A1 0.000138718
63 *46:66 *49:22 3.21926e-05
64 *46:66 *60:31 7.04017e-05
65 *46:66 *72:10 0.000165394
66 *46:66 *81:25 0.000339429
67 *46:66 *81:44 8.57577e-05
68 *46:66 *81:61 0.000141029
69 *46:77 *239:C 0.000123345
70 *46:77 *72:10 0.000431246
71 *46:137 *97:10 0.000112455
72 *46:137 *97:35 5.48193e-05
73 *257:A1 *46:32 0.000757377
74 *281:A1 *46:16 1.51481e-05
75 *294:D *261:A2 5.3304e-05
76 *11:10 *46:32 5.70419e-05
77 *12:10 *46:28 0.000223315
78 *39:10 *46:16 0.000137754
79 *40:8 *46:16 0.000115526
80 *41:21 *285:A2 1.223e-05
81 *41:31 *285:A2 1.50326e-05
82 *41:31 *46:77 4.17656e-05
83 *41:51 *265:A2 4.08664e-05
84 *41:51 *46:62 0.000221117
85 *41:57 *46:58 0.000555829
86 *41:70 *254:A2 1.12349e-05
87 *41:70 *46:32 2.46906e-05
88 *41:70 *46:43 5.32755e-05
89 *41:90 *265:A2 0.000186856
90 *41:90 *46:58 0
91 *41:120 *46:6 7.40718e-05
92 *41:120 *46:16 0.000100061
93 *41:130 *261:A2 2.34321e-05
94 *41:130 *46:16 0.00042108
*RES
1 *250:X *46:6 24.5743 
2 *46:6 *46:16 36.6257 
3 *46:16 *46:28 30.3493 
4 *46:28 *46:32 9.69429 
5 *46:32 *254:A2 23.4971 
6 *46:32 *46:43 6.83571 
7 *46:43 *268:A2 23.6214 
8 *46:43 *46:58 38.7414 
9 *46:58 *46:62 2.54786 
10 *46:62 *46:66 22.54 
11 *46:66 *276:A2 38.8493 
12 *46:66 *46:77 5.77929 
13 *46:77 *287:A2 38.8493 
14 *46:77 *285:A2 49.5171 
15 *46:62 *272:A2 23 
16 *46:58 *265:A2 26.5007 
17 *46:28 *257:A2 23 
18 *46:16 *261:A2 41.3764 
19 *46:6 *46:137 32.2579 
20 *46:137 *281:A2 23 
*END

*D_NET *47 0.000577766
*CONN
*I *254:B1 I *D sky130_fd_sc_hd__o211a_1
*I *251:Y O *D sky130_fd_sc_hd__inv_2
*CAP
1 *254:B1 0
2 *251:Y 0.000274998
3 *47:12 0.000274998
4 *47:12 *49:47 1.00084e-05
5 *11:10 *47:12 1.77609e-05
*RES
1 *251:Y *47:12 41.5007 
2 *47:12 *254:B1 38 
*END

*D_NET *48 0.00171763
*CONN
*I *253:A I *D sky130_fd_sc_hd__clkbuf_4
*I *279:D1 I *D sky130_fd_sc_hd__o2111a_1
*I *252:Y O *D sky130_fd_sc_hd__inv_2
*CAP