*SPEF "ieee 1481-1999"
*DESIGN "pulse_generator"
*DATE "11:11:11 Fri 11 11, 1111"
*VENDOR "OpenRCX"
*PROGRAM "Parallel Extraction"
*VERSION "1.0"
*DESIGN_FLOW "NAME_SCOPE LOCAL" "PIN_CAP NONE"
*DIVIDER /
*DELIMITER :
*BUS_DELIMITER []
*T_UNIT 1 NS
*C_UNIT 1 PF
*R_UNIT 1 OHM
*L_UNIT 1 HENRY

*NAME_MAP
*1 DIVIDE_BY_N[0]
*2 DIVIDE_BY_N[1]
*3 DIVIDE_BY_N[2]
*4 DIVIDE_BY_N[3]
*7 clk
*8 comb_out
*9 rst
*10 sync_out
*11 _000_
*12 _001_
*13 _002_
*14 _003_
*15 _004_
*16 _005_
*17 _006_
*18 _007_
*19 _008_
*20 _009_
*21 _010_
*22 _011_
*23 _012_
*24 _013_
*25 _014_
*26 _015_
*27 _016_
*28 _017_
*29 _018_
*30 _019_
*31 _020_
*32 _021_
*33 _022_
*34 _023_
*35 _024_
*36 _025_
*37 _026_
*38 _027_
*39 _028_
*40 _029_
*41 _030_
*42 _031_
*43 _032_
*44 _033_
*45 _034_
*46 _035_
*47 _036_
*48 _037_
*49 _038_
*50 _039_
*51 _040_
*52 _041_
*53 _042_
*54 _043_
*55 _044_
*56 _045_
*57 _046_
*58 _047_
*59 _048_
*60 _049_
*61 _050_
*62 _051_
*63 _052_
*64 _053_
*65 _054_
*66 _055_
*67 _056_
*68 _057_
*69 _058_
*70 _059_
*71 _060_
*72 _061_
*73 clknet_0_clk
*74 clknet_1_0__leaf_clk
*75 clknet_1_1__leaf_clk
*76 count\[0\]
*77 count\[10\]
*78 count\[1\]
*79 count\[2\]
*80 count\[3\]
*81 count\[4\]
*82 count\[5\]
*83 count\[6\]
*84 count\[7\]
*85 count\[8\]
*86 count\[9\]
*87 net1
*88 net10
*89 net11
*90 net12
*91 net13
*92 net14
*93 net2
*94 net3
*95 net4
*96 net5
*97 net6
*98 net7
*99 net8
*100 net9
*101 FILLER_0_0_49
*102 FILLER_0_0_55
*103 FILLER_0_0_57
*104 FILLER_0_0_67
*105 FILLER_0_0_75
*106 FILLER_0_10_15
*107 FILLER_0_10_22
*108 FILLER_0_10_3
*109 FILLER_0_10_36
*110 FILLER_0_10_50
*111 FILLER_0_10_54
*112 FILLER_0_10_61
*113 FILLER_0_10_67
*114 FILLER_0_10_79
*115 FILLER_0_11_15
*116 FILLER_0_11_3
*117 FILLER_0_11_31
*118 FILLER_0_11_35
*119 FILLER_0_11_53
*120 FILLER_0_11_57
*121 FILLER_0_12_11
*122 FILLER_0_12_29
*123 FILLER_0_12_3
*124 FILLER_0_12_50
*125 FILLER_0_12_58
*126 FILLER_0_12_77
*127 FILLER_0_13_12
*128 FILLER_0_13_24
*129 FILLER_0_13_29
*130 FILLER_0_13_37
*131 FILLER_0_13_47
*132 FILLER_0_13_55
*133 FILLER_0_13_57
*134 FILLER_0_13_69
*135 FILLER_0_1_15
*136 FILLER_0_1_3
*137 FILLER_0_1_55
*138 FILLER_0_1_57
*139 FILLER_0_1_81
*140 FILLER_0_2_15
*141 FILLER_0_2_26
*142 FILLER_0_2_29
*143 FILLER_0_2_3
*144 FILLER_0_2_54
*145 FILLER_0_2_62
*146 FILLER_0_2_66
*147 FILLER_0_2_78
*148 FILLER_0_2_82
*149 FILLER_0_3_27
*150 FILLER_0_3_40
*151 FILLER_0_3_65
*152 FILLER_0_3_77
*153 FILLER_0_4_11
*154 FILLER_0_4_26
*155 FILLER_0_4_29
*156 FILLER_0_4_3
*157 FILLER_0_4_41
*158 FILLER_0_4_53
*159 FILLER_0_5_26
*160 FILLER_0_5_55
*161 FILLER_0_5_65
*162 FILLER_0_5_77
*163 FILLER_0_6_27
*164 FILLER_0_6_47
*165 FILLER_0_6_53
*166 FILLER_0_6_62
*167 FILLER_0_6_72
*168 FILLER_0_6_78
*169 FILLER_0_7_3
*170 FILLER_0_7_34
*171 FILLER_0_7_60
*172 FILLER_0_7_68
*173 FILLER_0_8_27
*174 FILLER_0_8_29
*175 FILLER_0_8_48
*176 FILLER_0_8_60
*177 FILLER_0_8_67
*178 FILLER_0_8_77
*179 FILLER_0_9_15
*180 FILLER_0_9_3
*181 FILLER_0_9_51
*182 FILLER_0_9_55
*183 FILLER_0_9_73
*184 FILLER_0_9_81
*185 PHY_0
*186 PHY_1
*187 PHY_10
*188 PHY_11
*189 PHY_12
*190 PHY_13
*191 PHY_14
*192 PHY_15
*193 PHY_16
*194 PHY_17
*195 PHY_18
*196 PHY_19
*197 PHY_2
*198 PHY_20
*199 PHY_21
*200 PHY_22
*201 PHY_23
*202 PHY_24
*203 PHY_25
*204 PHY_26
*205 PHY_27
*206 PHY_3
*207 PHY_4
*208 PHY_5
*209 PHY_6
*210 PHY_7
*211 PHY_8
*212 PHY_9
*213 TAP_28
*214 TAP_29
*215 TAP_30
*216 TAP_31
*217 TAP_32
*218 TAP_33
*219 TAP_34
*220 TAP_35
*221 TAP_36
*222 TAP_37
*223 TAP_38
*224 TAP_39
*225 TAP_40
*226 TAP_41
*227 TAP_42
*228 TAP_43
*229 _062_
*230 _063_
*231 _064_
*232 _065_
*233 _066_
*234 _067_
*235 _068_
*236 _069_
*237 _070_
*238 _071_
*239 _072_
*240 _073_
*241 _074_
*242 _075_
*243 _076_
*244 _077_
*245 _078_
*246 _079_
*247 _080_
*248 _081_
*249 _082_
*250 _083_
*251 _084_
*252 _085_
*253 _086_
*254 _087_
*255 _088_
*256 _089_
*257 _090_
*258 _091_
*259 _092_
*260 _093_
*261 _094_
*262 _095_
*263 _096_
*264 _097_
*265 _098_
*266 _099_
*267 _100_
*268 _101_
*269 _102_
*270 _103_
*271 _104_
*272 _105_
*273 _106_
*274 _107_
*275 _108_
*276 _109_
*277 _110_
*278 _111_
*279 _112_
*280 _113_
*281 _114_
*282 _115_
*283 _116_
*284 _117_
*285 _118_
*286 _119_
*287 _120_
*288 _121_
*289 _122_
*290 _123_
*291 _124_
*292 _125_
*293 _126_
*294 _127_
*295 _128_
*296 _129_
*297 _130_
*298 _131_
*299 _132_
*300 _133_
*301 _134_
*302 _135_
*303 _136_
*304 clkbuf_0_clk
*305 clkbuf_1_0__f_clk
*306 clkbuf_1_1__f_clk
*307 hold4
*308 hold5
*309 hold6
*310 hold7
*311 input1
*312 input2
*313 input3
*314 input4
*315 input5
*316 output6
*317 output7
*318 rebuffer1
*319 rebuffer2
*320 rebuffer3

*PORTS
DIVIDE_BY_N[0] I
DIVIDE_BY_N[1] I
DIVIDE_BY_N[2] I
DIVIDE_BY_N[3] I
clk I
comb_out O
rst I
sync_out O

*D_NET *1 0.00134903
*CONN
*P DIVIDE_BY_N[0] I
*I *311:A I *D sky130_fd_sc_hd__buf_4
*CAP
1 DIVIDE_BY_N[0] 0.000674513
2 *311:A 0.000674513
*RES
1 DIVIDE_BY_N[0] *311:A 15.33 
*END

*D_NET *2 0.000788535
*CONN
*P DIVIDE_BY_N[1] I
*I *312:A I *D sky130_fd_sc_hd__clkbuf_2
*CAP
1 DIVIDE_BY_N[1] 0.000394267
2 *312:A 0.000394267
3 *312:A *254:C1 0
*RES
1 DIVIDE_BY_N[1] *312:A 10.545 
*END

*D_NET *3 0.000731497
*CONN
*P DIVIDE_BY_N[2] I
*I *313:A I *D sky130_fd_sc_hd__clkbuf_2
*CAP
1 DIVIDE_BY_N[2] 0.000365749
2 *313:A 0.000365749
*RES
1 DIVIDE_BY_N[2] *313:A 8.2287 
*END

*D_NET *4 0.000619138
*CONN
*P DIVIDE_BY_N[3] I
*I *314:A I *D sky130_fd_sc_hd__buf_6
*CAP
1 DIVIDE_BY_N[3] 0.000309569
2 *314:A 0.000309569
3 *314:A *298:CLK 0
*RES
1 DIVIDE_BY_N[3] *314:A 7.75043 
*END

*D_NET *7 0.00620278
*CONN
*P clk I
*I *304:A I *D sky130_fd_sc_hd__clkbuf_16
*CAP
1 clk 0.00239843
2 *304:A 0.00239843
3 *304:A *305:A 0.0009236
4 *304:A *306:A 7.41855e-05
5 *304:A *49:73 0.000200664
6 *304:A *74:16 4.55869e-05
7 *304:A *74:43 8.96968e-05
8 *304:A *74:56 7.21953e-05
*RES
1 clk *304:A 45.205 
*END

*D_NET *8 0.00102886
*CONN
*P comb_out O
*I *316:X O *D sky130_fd_sc_hd__buf_6
*CAP
1 comb_out 0.000514429
2 *316:X 0.000514429
*RES
1 *316:X comb_out 9.40217 
*END

*D_NET *9 0.00124569
*CONN
*P rst I
*I *315:A I *D sky130_fd_sc_hd__clkbuf_1
*CAP
1 rst 0.000542113
2 *315:A 0.000542113
3 *315:A *316:A 0.000161467
*RES
1 rst *315:A 13.575 
*END

*D_NET *10 0.00126452
*CONN
*P sync_out O
*I *317:X O *D sky130_fd_sc_hd__clkbuf_4
*CAP
1 sync_out 0.00063226
2 *317:X 0.00063226
*RES
1 *317:X sync_out 12.3987 
*END

*D_NET *11 0.000445094
*CONN
*I *292:D I *D sky130_fd_sc_hd__dfxtp_1
*I *254:X O *D sky130_fd_sc_hd__o211a_1
*CAP
1 *292:D 0.000179799
2 *254:X 0.000179799
3 *292:D *251:A 7.70553e-06
4 *292:D *254:B1 1.99007e-05
5 *292:D *46:32 5.30673e-05
6 *292:D *74:66 4.82319e-06
7 *292:D *93:16 0
*RES
1 *254:X *292:D 9.76875 
*END

*D_NET *12 0.000435467
*CONN
*I *293:D I *D sky130_fd_sc_hd__dfxtp_2
*I *257:X O *D sky130_fd_sc_hd__o2111a_1
*CAP
1 *293:D 8.15686e-05
2 *257:X 8.15686e-05
3 *293:D *257:B1 7.84425e-05
4 *293:D *46:28 0.000186182
5 *293:D *78:6 7.70553e-06
*RES
1 *257:X *293:D 9.42375 
*END

*D_NET *13 0.00026384
*CONN
*I *294:D I *D sky130_fd_sc_hd__dfxtp_1
*I *261:X O *D sky130_fd_sc_hd__o211a_1
*CAP
1 *294:D 8.44685e-05
2 *261:X 8.44685e-05
3 *294:D *261:A2 4.66108e-05
4 *294:D *294:CLK 4.82919e-05
*RES
1 *261:X *294:D 4.56875 
*END

*D_NET *14 0.000540194
*CONN
*I *295:D I *D sky130_fd_sc_hd__dfxtp_1
*I *265:X O *D sky130_fd_sc_hd__o211a_1
*CAP
1 *295:D 0.000160754
2 *265:X 0.000160754
3 *295:D *41:57 7.1624e-05
4 *295:D *49:73 0.000147062
*RES
1 *265:X *295:D 10.5638 
*END

*D_NET *15 0.000951295
*CONN
*I *296:D I *D sky130_fd_sc_hd__dfxtp_1
*I *268:X O *D sky130_fd_sc_hd__o2111a_1
*CAP
1 *296:D 0.000245951
2 *268:X 0.000245951
3 *296:D *74:16 0.000430695
4 *296:D *81:8 2.86975e-05
*RES
1 *268:X *296:D 7.82375 
*END

*D_NET *16 0.000774318
*CONN
*I *297:D I *D sky130_fd_sc_hd__dfxtp_1
*I *272:X O *D sky130_fd_sc_hd__o211a_1
*CAP
1 *297:D 0.00029297
2 *272:X 0.00029297
3 *297:D *41:47 0.000188377
*RES
1 *272:X *297:D 8.28875 
*END

*D_NET *17 0.000847531
*CONN
*I *298:D I *D sky130_fd_sc_hd__dfxtp_1
*I *276:X O *D sky130_fd_sc_hd__o211a_1
*CAP
1 *298:D 0.000302827
2 *276:X 0.000302827
3 *298:D *239:D 4.75991e-05
4 *298:D *41:47 0.000194278
*RES
1 *276:X *298:D 7.82375 
*END

*D_NET *18 0.000577364
*CONN
*I *299:D I *D sky130_fd_sc_hd__dfxtp_1
*I *279:X O *D sky130_fd_sc_hd__o2111a_1
*CAP
1 *299:D 0.000211629
2 *279:X 0.000211629
3 *299:D *278:B 0.000123955
4 *299:D *48:8 1.50648e-05
5 *299:D *75:53 1.50866e-05
*RES
1 *279:X *299:D 10.0538 
*END

*D_NET *19 0.000750644
*CONN
*I *300:D I *D sky130_fd_sc_hd__dfxtp_1
*I *281:X O *D sky130_fd_sc_hd__o211a_1
*CAP
1 *300:D 0.000175891
2 *281:X 0.000175891
3 *300:D *300:CLK 0.00022638
4 *300:D *303:CLK 9.23578e-05
5 *300:D *316:A 3.35139e-05
6 *300:D *75:53 4.66108e-05
*RES
1 *281:X *300:D 10.8787 
*END

*D_NET *20 0.000270236
*CONN
*I *301:D I *D sky130_fd_sc_hd__dfxtp_1
*I *285:X O *D sky130_fd_sc_hd__o211a_1
*CAP
1 *301:D 0.000127932
2 *285:X 0.000127932
3 *301:D *301:CLK 1.43717e-05
*RES
1 *285:X *301:D 8.91375 
*END

*D_NET *21 0.000230067
*CONN
*I *302:D I *D sky130_fd_sc_hd__dfxtp_1
*I *287:X O *D sky130_fd_sc_hd__o211a_1
*CAP
1 *302:D 8.50897e-05
2 *287:X 8.50897e-05
3 *302:D *240:A 3.11903e-05
4 *302:D *302:CLK 2.86975e-05
*RES
1 *287:X *302:D 4.56875 
*END

*D_NET *22 0.00180598
*CONN
*I *320:A I *D sky130_fd_sc_hd__dlygate4sd1_1
*I *290:B I *D sky130_fd_sc_hd__and3_1
*I *288:X O *D sky130_fd_sc_hd__or4_4
*CAP
1 *320:A 0.000198715
2 *290:B 0.000264587
3 *288:X 0
4 *22:6 0.000463302
5 *290:B *229:A2 9.12494e-06
6 *290:B *229:B1 0.000177267
7 *290:B *238:B 0.000158564
8 *290:B *35:14 0.000171486
9 *290:B *93:33 2.14995e-05
10 *290:B *93:61 3.5361e-05
11 *320:A *319:A 2.59285e-05
12 *320:A *35:14 0.000274837
13 *320:A *93:61 5.31158e-06
*RES
1 *288:X *22:6 3.6 
2 *22:6 *290:B 8.505 
3 *22:6 *320:A 7.815 
*END

*D_NET *23 0.00400348
*CONN
*I *231:A2 I *D sky130_fd_sc_hd__a21oi_1
*I *290:C I *D sky130_fd_sc_hd__and3_1
*I *289:Y O *D sky130_fd_sc_hd__o31ai_1
*CAP
1 *231:A2 0.000665919
2 *290:C 9.19276e-05
3 *289:Y 0.000458998
4 *23:10 0.00121684
5 *231:A2 *231:A1 3.65967e-05
6 *231:A2 *231:B1 0.000501903
7 *231:A2 *247:B1 1.22325e-05
8 *231:A2 *319:A 6.27907e-05
9 *231:A2 *24:8 0.000237712
10 *231:A2 *93:61 2.29492e-05
11 *290:C *290:A 2.11462e-05
12 *290:C *24:8 0.000132951
13 *290:C *26:6 3.47263e-05
14 *290:C *93:33 3.72103e-05
15 *290:C *93:61 1.10435e-05
16 *23:10 *288:A 8.34281e-06
17 *23:10 *289:A3 0.000156466
18 *23:10 *289:B1 5.83121e-06
19 *23:10 *93:37 0.000255335
20 *23:10 *94:12 3.25525e-05
*RES
1 *289:Y *23:10 9.495 
2 *23:10 *290:C 5.565 
3 *23:10 *231:A2 13.785 
*END

*D_NET *24 0.00237532
*CONN
*I *248:A1 I *D sky130_fd_sc_hd__o21bai_1
*I *233:A I *D sky130_fd_sc_hd__or4_4
*I *290:X O *D sky130_fd_sc_hd__and3_1
*CAP
1 *248:A1 0.000141231
2 *233:A 8.3498e-05
3 *290:X 0.000201129
4 *24:8 0.000425858
5 *233:A *233:D 9.47728e-05
6 *233:A *248:B1_N 0.000150798
7 *233:A *28:16 8.27724e-05
8 *248:A1 *248:A2 0.000148687
9 *248:A1 *249:B1 4.66108e-05
10 *248:A1 *27:8 7.1624e-05
11 *24:8 *319:A 2.21697e-05
12 *24:8 *27:8 0.00053551
13 *231:A2 *24:8 0.000237712
14 *290:C *24:8 0.000132951
*RES
1 *290:X *24:8 10.08 
2 *24:8 *233:A 6.135 
3 *24:8 *248:A1 6.45 
*END

*D_NET *25 0.00190049
*CONN
*I *232:A1 I *D sky130_fd_sc_hd__a21oi_1
*I *230:B I *D sky130_fd_sc_hd__and3_1
*I *238:B I *D sky130_fd_sc_hd__nor2_1
*I *291:X O *D sky130_fd_sc_hd__or3_1
*CAP
1 *232:A1 4.0841e-05
2 *230:B 0
3 *238:B 0.00028278
4 *291:X 0.000121501
5 *25:16 0.000380691
6 *25:12 0.000260253
7 *232:A1 *230:A 2.53167e-05
8 *232:A1 *232:A2 4.77807e-05
9 *232:A1 *260:B 4.66108e-05
10 *232:A1 *79:36 8.50369e-06
11 *238:B *229:A1 2.90115e-05
12 *238:B *290:A 0.000187223
13 *238:B *26:6 1.32652e-05
14 *238:B *35:14 1.18307e-05
15 *25:12 *233:D 6.90972e-05
16 *25:12 *94:12 4.77807e-05
17 *25:16 *232:A2 0.00016031
18 *25:16 *290:A 9.12671e-06
19 *290:B *238:B 0.000158564
*RES
1 *291:X *25:12 7.685 
2 *25:12 *25:16 2.1 
3 *25:16 *238:B 6.925 
4 *25:16 *230:B 1.6 
5 *25:12 *232:A1 2.755 
*END

*D_NET *26 0.00117198
*CONN
*I *232:A2 I *D sky130_fd_sc_hd__a21oi_1
*I *230:C I *D sky130_fd_sc_hd__and3_1
*I *229:Y O *D sky130_fd_sc_hd__o21ai_1
*CAP
1 *232:A2 9.40155e-05
2 *230:C 0
3 *229:Y 0.000236646
4 *26:6 0.000330661
5 *232:A2 *230:A 0.000122189
6 *232:A2 *231:B1 5.20193e-05
7 *232:A2 *80:30 9.12494e-06
8 *26:6 *290:A 7.12445e-05
9 *232:A1 *232:A2 4.77807e-05
10 *238:B *26:6 1.32652e-05
11 *290:C *26:6 3.47263e-05
12 *25:16 *232:A2 0.00016031
*RES
1 *229:Y *26:6 4.3675 
2 *26:6 *230:C 1.6 
3 *26:6 *232:A2 8.2475 
*END

*D_NET *27 0.00244175
*CONN
*I *248:A2 I *D sky130_fd_sc_hd__o21bai_1
*I *233:B I *D sky130_fd_sc_hd__or4_4
*I *230:X O *D sky130_fd_sc_hd__and3_1
*CAP
1 *248:A2 0.000215501
2 *233:B 0.000107142
3 *230:X 0.00022309
4 *27:8 0.000545733
5 *233:B *248:B1_N 0.000115063
6 *233:B *28:16 5.66767e-05
7 *248:A2 *249:B1 1.42598e-05
8 *27:8 *231:B1 0.000357066
9 *27:8 *80:30 5.13924e-05
10 *248:A1 *248:A2 0.000148687
11 *248:A1 *27:8 7.1624e-05
12 *24:8 *27:8 0.00053551
*RES
1 *230:X *27:8 10.845 
2 *27:8 *233:B 5.085 
3 *27:8 *248:A2 7.155 
*END

*D_NET *28 0.00200704
*CONN
*I *233:C I *D sky130_fd_sc_hd__or4_4
*I *248:B1_N I *D sky130_fd_sc_hd__o21bai_1
*I *231:Y O *D sky130_fd_sc_hd__a21oi_1
*CAP
1 *233:C 0
2 *248:B1_N 0.00020324
3 *231:Y 0.000370048
4 *28:16 0.000573288
5 *248:B1_N *35:14 3.50571e-05
6 *28:16 *231:A1 4.66108e-05
7 *28:16 *233:D 4.40572e-05
8 *28:16 *242:A 3.50152e-06
9 *28:16 *249:A2 2.05564e-05
10 *28:16 *261:A1 0.000218925
11 *28:16 *30:12 8.64421e-05
12 *233:A *248:B1_N 0.000150798
13 *233:A *28:16 8.27724e-05
14 *233:B *248:B1_N 0.000115063
15 *233:B *28:16 5.66767e-05
*RES
1 *231:Y *28:16 12.6912 
2 *28:16 *248:B1_N 9.51875 
3 *28:16 *233:C 1.6 
*END

*D_NET *29 0.00165751
*CONN
*I *233:D I *D sky130_fd_sc_hd__or4_4
*I *232:Y O *D sky130_fd_sc_hd__a21oi_1
*CAP
1 *233:D 0.000576706
2 *232:Y 0.000576706
3 *233:D *231:A1 2.14921e-05
4 *233:D *260:B 0.000115147
5 *233:D *318:A 0.000134756
6 *233:D *87:62 2.47705e-05
7 *233:A *233:D 9.47728e-05
8 *25:12 *233:D 6.90972e-05
9 *28:16 *233:D 4.40572e-05
*RES
1 *232:Y *233:D 16.995 
*END

*D_NET *30 0.00141741
*CONN
*I *243:A_N I *D sky130_fd_sc_hd__and4b_1
*I *249:A1 I *D sky130_fd_sc_hd__o211a_1
*I *233:X O *D sky130_fd_sc_hd__or4_4
*CAP
1 *243:A_N 0.000374804
2 *249:A1 0
3 *233:X 0.000162061
4 *30:12 0.000536864
5 *243:A_N *243:C 4.45467e-05
6 *243:A_N *243:D 1.10377e-05
7 *243:A_N *249:A2 0.000120121
8 *243:A_N *249:B1 1.31297e-05
9 *243:A_N *249:C1 2.42043e-05
10 *30:12 *249:A2 4.4196e-05
11 *28:16 *30:12 8.64421e-05
*RES
1 *233:X *30:12 8.03 
2 *30:12 *249:A1 1.6 
3 *30:12 *243:A_N 7.285 
*END

*D_NET *31 0.00131865
*CONN
*I *246:B I *D sky130_fd_sc_hd__nand2_1
*I *235:B I *D sky130_fd_sc_hd__nor2_1
*I *236:B2 I *D sky130_fd_sc_hd__a2bb2o_1
*I *234:X O *D sky130_fd_sc_hd__xor2_1
*CAP
1 *246:B 0.000239065
2 *235:B 3.30903e-05
3 *236:B2 0
4 *234:X 0.000163451
5 *31:14 5.96428e-05
6 *31:12 0.000429068
7 *235:B *236:B1 4.89295e-05
8 *235:B *247:B1 8.64421e-05
9 *235:B *78:79 5.12969e-06
10 *235:B *78:90 1.14169e-05
11 *246:B *236:B1 2.64559e-05
12 *246:B *246:A 1.41165e-05
13 *246:B *247:B1 1.16854e-05
14 *246:B *78:90 5.351e-05
15 *31:12 *236:A2_N 1.77665e-05
16 *31:12 *247:B1 2.96727e-05
17 *31:12 *87:35 7.1624e-05
18 *31:14 *78:79 1.75875e-05
*RES
1 *234:X *31:12 7.955 
2 *31:12 *31:14 0.615 
3 *31:14 *236:B2 1.6 
4 *31:14 *235:B 2.755 
5 *31:12 *246:B 4.99 
*END

*D_NET *32 0.000578587
*CONN
*I *247:A1 I *D sky130_fd_sc_hd__o21a_1
*I *237:A I *D sky130_fd_sc_hd__nor2_1
*I *235:Y O *D sky130_fd_sc_hd__nor2_1
*CAP
1 *247:A1 6.96832e-05
2 *237:A 0
3 *235:Y 0.000141514
4 *32:16 0.000211198
5 *247:A1 *237:B 3.38272e-05
6 *247:A1 *243:B 2.86975e-05
7 *32:16 *237:B 8.50369e-06
8 *32:16 *247:B1 4.89362e-05
9 *32:16 *317:A 3.6227e-05
*RES
1 *235:Y *32:16 7.985 
2 *32:16 *237:A 1.6 
3 *32:16 *247:A1 3.1 
*END

*D_NET *33 0.000615045
*CONN
*I *237:B I *D sky130_fd_sc_hd__nor2_1
*I *247:A2 I *D sky130_fd_sc_hd__o21a_1
*I *236:X O *D sky130_fd_sc_hd__a2bb2o_1
*CAP
1 *237:B 4.6835e-05
2 *247:A2 1.02713e-05
3 *236:X 0.000107766
4 *33:14 0.000164873
5 *237:B *243:B 1.16854e-05
6 *33:14 *242:B 0.000102916
7 *33:14 *243:B 1.06688e-05
8 *33:14 *247:B1 7.1624e-05
9 *33:14 *87:27 4.6075e-05
10 *247:A1 *237:B 3.38272e-05
11 *32:16 *237:B 8.50369e-06
*RES
1 *236:X *33:14 7.97 
2 *33:14 *247:A2 1.96 
3 *33:14 *237:B 2.755 
*END

*D_NET *34 0.000617301
*CONN
*I *243:B I *D sky130_fd_sc_hd__and4b_1
*I *237:Y O *D sky130_fd_sc_hd__nor2_1
*CAP
1 *243:B 0.000201667
2 *237:Y 0.000201667
3 *243:B *87:12 0.000113891
4 *243:B *87:27 4.90227e-05
5 *237:B *243:B 1.16854e-05
6 *247:A1 *243:B 2.86975e-05
7 *33:14 *243:B 1.06688e-05
*RES
1 *237:Y *243:B 10.41 
*END

*D_NET *35 0.00260224
*CONN
*I *279:A1 I *D sky130_fd_sc_hd__o2111a_1
*I *245:A I *D sky130_fd_sc_hd__clkbuf_4
*I *241:A I *D sky130_fd_sc_hd__nor2_1
*I *238:Y O *D sky130_fd_sc_hd__nor2_1
*CAP
1 *279:A1 0.000150723
2 *245:A 0
3 *241:A 2.16729e-05
4 *238:Y 0.000471877
5 *35:29 0.00029812
6 *35:14 0.000640946
7 *241:A *38:12 2.88357e-05
8 *279:A1 *41:8 2.0187e-05
9 *279:A1 *85:20 0.000224158
10 *35:14 *229:A1 8.64421e-05
11 *35:14 *240:A 3.6141e-05
12 *35:14 *87:62 4.46271e-05
13 *35:29 *85:20 8.53011e-05
14 *238:B *35:14 1.18307e-05
15 *248:B1_N *35:14 3.50571e-05
16 *290:B *35:14 0.000171486
17 *320:A *35:14 0.000274837
*RES
1 *238:Y *35:14 13.05 
2 *35:14 *241:A 4.05 
3 *35:14 *35:29 4.43 
4 *35:29 *245:A 1.6 
5 *35:29 *279:A1 8.795 
*END

*D_NET *36 0.00179624
*CONN
*I *240:D I *D sky130_fd_sc_hd__or4_1
*I *239:X O *D sky130_fd_sc_hd__or4_1
*CAP
1 *240:D 0.00054445
2 *239:X 0.00054445
3 *240:D *239:A 0.000265772
4 *240:D *240:B 1.10951e-05
5 *240:D *240:C 4.77769e-05
6 *240:D *274:A 3.04704e-05
7 *240:D *274:B 4.40417e-05
8 *240:D *306:A 0.000308182
*RES
1 *239:X *240:D 16.17 
*END

*D_NET *37 0.000138006
*CONN
*I *241:B I *D sky130_fd_sc_hd__nor2_1
*I *240:X O *D sky130_fd_sc_hd__or4_1
*CAP
1 *241:B 6.43366e-05
2 *240:X 6.43366e-05
3 *241:B *240:C 3.50152e-06
4 *241:B *38:12 5.83121e-06
*RES
1 *240:X *241:B 4.265 
*END

*D_NET *38 0.00200878
*CONN
*I *243:C I *D sky130_fd_sc_hd__and4b_1
*I *249:C1 I *D sky130_fd_sc_hd__o211a_1
*I *241:Y O *D sky130_fd_sc_hd__nor2_1
*CAP
1 *243:C 0.000133246
2 *249:C1 3.64936e-05
3 *241:Y 0.000591302
4 *38:12 0.000761042
5 *243:C *243:D 2.05864e-05
6 *249:C1 *249:A2 1.08758e-05
7 *249:C1 *249:B1 3.13354e-05
8 *38:12 *249:A2 7.10593e-06
9 *38:12 *249:B1 0.000313375
10 *241:A *38:12 2.88357e-05
11 *241:B *38:12 5.83121e-06
12 *243:A_N *243:C 4.45467e-05
13 *243:A_N *249:C1 2.42043e-05
*RES
1 *241:Y *38:12 9.775 
2 *38:12 *249:C1 2.665 
3 *38:12 *243:C 3.79 
*END

*D_NET *39 0.000550157
*CONN
*I *243:D I *D sky130_fd_sc_hd__and4b_1
*I *242:Y O *D sky130_fd_sc_hd__nand2_1
*CAP
1 *243:D 0.000104982
2 *242:Y 0.000104982
3 *243:D *249:A2 8.46818e-05
4 *243:D *46:16 0.000112595
5 *243:D *87:12 0.000111293
6 *243:A_N *243:D 1.10377e-05
7 *243:C *243:D 2.05864e-05
*RES
1 *242:Y *243:D 9.57375 
*END

*D_NET *40 0.000239232
*CONN
*I *244:A I *D sky130_fd_sc_hd__clkbuf_2
*I *243:X O *D sky130_fd_sc_hd__and4b_1
*CAP
1 *244:A 2.64799e-05
2 *243:X 2.64799e-05
3 *244:A *261:A1 9.24881e-05
4 *244:A *46:16 9.37846e-05
*RES
1 *243:X *244:A 8.325 
*END

*D_NET *41 0.0145881
*CONN
*I *281:A1 I *D sky130_fd_sc_hd__o211a_1
*I *261:A1 I *D sky130_fd_sc_hd__o211a_1
*I *287:A1 I *D sky130_fd_sc_hd__o211a_1
*I *276:A1 I *D sky130_fd_sc_hd__o211a_1
*I *272:A1 I *D sky130_fd_sc_hd__o211a_1
*I *265:A1 I *D sky130_fd_sc_hd__o211a_1
*I *257:A1 I *D sky130_fd_sc_hd__o2111a_1
*I *254:A1 I *D sky130_fd_sc_hd__o211a_1
*I *268:A1 I *D sky130_fd_sc_hd__o2111a_1
*I *285:A1 I *D sky130_fd_sc_hd__o211a_1
*I *245:X O *D sky130_fd_sc_hd__clkbuf_4
*CAP
1 *281:A1 0.000135615
2 *261:A1 0.000642399
3 *287:A1 3.02359e-05
4 *276:A1 5.57495e-05
5 *272:A1 0
6 *265:A1 0.000121904
7 *257:A1 0.00010173
8 *254:A1 0
9 *268:A1 8.00779e-06
10 *285:A1 9.88882e-05
11 *245:X 0
12 *41:120 0.00108087
13 *41:70 0.000231047
14 *41:57 0.000359442
15 *41:51 0.000500575
16 *41:47 0.00070567
17 *41:31 0.000834681
18 *41:21 0.000485718
19 *41:8 0.000704565
20 *41:4 0.000682869
21 *257:A1 *257:D1 0.000382501
22 *257:A1 *46:32 0.000658633
23 *261:A1 *249:A2 0.000151346
24 *261:A1 *261:A2 2.11323e-05
25 *261:A1 *294:CLK 1.08758e-05
26 *261:A1 *46:16 0.000400055
27 *261:A1 *78:60 0.000136679
28 *261:A1 *79:36 7.14241e-05
29 *261:A1 *87:62 2.30258e-05
30 *265:A1 *265:A2 0.000159165
31 *265:A1 *305:A 1.67904e-05
32 *265:A1 *46:58 0
33 *268:A1 *308:A 4.82863e-05
34 *268:A1 *49:39 2.30292e-05
35 *276:A1 *239:D 5.82904e-05
36 *276:A1 *83:8 1.77595e-05
37 *281:A1 *303:CLK 2.69443e-06
38 *281:A1 *303:D 4.66108e-05
39 *281:A1 *316:A 4.99524e-05
40 *281:A1 *46:16 1.46781e-05
41 *281:A1 *97:10 9.22308e-05
42 *285:A1 *75:23 9.49335e-05
43 *287:A1 *240:A 7.73326e-06
44 *287:A1 *302:CLK 4.77807e-05
45 *41:8 *283:A2 0.000158536
46 *41:8 *284:B 0.000156778
47 *41:8 *69:6 0.000184201
48 *41:8 *84:33 0.000112542
49 *41:8 *84:37 0.000233573
50 *41:8 *85:20 0.000421777
51 *41:8 *85:22 0.000121019
52 *41:21 *285:A2 1.38283e-05
53 *41:21 *302:CLK 0.000202658
54 *41:21 *75:23 0.0001255
55 *41:31 *239:C 3.21448e-05
56 *41:31 *239:D 0.000141844
57 *41:31 *273:A 2.97746e-05
58 *41:31 *285:A2 1.64056e-05
59 *41:31 *46:77 4.61448e-05
60 *41:31 *83:23 6.18274e-05
61 *41:47 *272:B1 8.65905e-05
62 *41:47 *286:A 0.000112589
63 *41:47 *286:B 0.000179857
64 *41:47 *82:10 6.45946e-05
65 *41:47 *82:26 0
66 *41:47 *83:8 1.77665e-05
67 *41:51 *265:A2 3.57349e-05
68 *41:51 *272:B1 1.07593e-05
69 *41:51 *46:62 0.00018876
70 *41:57 *295:CLK 0.000109532
71 *41:57 *46:58 0.000453309
72 *41:57 *49:28 2.34345e-05
73 *41:70 *254:A2 9.13949e-06
74 *41:70 *254:C1 4.77719e-05
75 *41:70 *257:D1 0.000122132
76 *41:70 *268:D1 0
77 *41:70 *308:A 0.000157096
78 *41:70 *46:32 2.20014e-05
79 *41:70 *46:43 5.08783e-05
80 *41:70 *49:39 0.000388162
81 *41:120 *279:A2 0.000196669
82 *41:120 *46:6 6.60042e-05
83 *41:120 *46:16 8.52845e-05
84 *244:A *261:A1 9.24881e-05
85 *279:A1 *41:8 2.0187e-05
86 *295:D *41:57 7.1624e-05
87 *297:D *41:47 0.000188377
88 *298:D *41:47 0.000194278
89 *28:16 *261:A1 0.000218925
*RES
1 *245:X *41:4 1.6 
2 *41:4 *41:8 12.11 
3 *41:8 *285:A1 5.745 
4 *41:8 *41:21 4.89 
5 *41:21 *41:31 6.845 
6 *41:31 *41:47 14.98 
7 *41:47 *41:51 2.79 
8 *41:51 *41:57 9.97 
9 *41:57 *268:A1 2.05 
10 *41:57 *41:70 5.31 
11 *41:70 *254:A1 1.6 
12 *41:70 *257:A1 7.57 
13 *41:51 *265:A1 7.7 
14 *41:47 *272:A1 1.6 
15 *41:31 *276:A1 2.74 
16 *41:21 *287:A1 4.2225 
17 *41:4 *41:120 7.625 
18 *41:120 *261:A1 16.86 
19 *41:120 *281:A1 6.195 
*END

*D_NET *42 0.00109232
*CONN
*I *247:B1 I *D sky130_fd_sc_hd__o21a_1
*I *246:Y O *D sky130_fd_sc_hd__nand2_1
*CAP
1 *247:B1 0.000274477
2 *246:Y 0.000274477
3 *247:B1 *236:A2_N 8.46767e-05
4 *247:B1 *246:A 4.77757e-05
5 *247:B1 *78:90 3.64285e-05
6 *247:B1 *87:27 0.000113891
7 *231:A2 *247:B1 1.22325e-05
8 *235:B *247:B1 8.64421e-05
9 *246:B *247:B1 1.16854e-05
10 *31:12 *247:B1 2.96727e-05
11 *32:16 *247:B1 4.89362e-05
12 *33:14 *247:B1 7.1624e-05
*RES
1 *246:Y *247:B1 12.84 
*END

*D_NET *43 0.00116406
*CONN
*I *249:A2 I *D sky130_fd_sc_hd__o211a_1
*I *247:X O *D sky130_fd_sc_hd__o21a_1
*CAP
1 *249:A2 0.00028243
2 *247:X 0.00028243
3 *249:A2 *242:A 8.41384e-05
4 *249:A2 *242:B 2.747e-05
5 *249:A2 *249:B1 3.7837e-05
6 *249:A2 *87:27 1.08758e-05
7 *243:A_N *249:A2 0.000120121
8 *243:D *249:A2 8.46818e-05
9 *249:C1 *249:A2 1.08758e-05
10 *261:A1 *249:A2 0.000151346
11 *28:16 *249:A2 2.05564e-05
12 *30:12 *249:A2 4.4196e-05
13 *38:12 *249:A2 7.10593e-06
*RES
1 *247:X *249:A2 12.9 
*END

*D_NET *44 0.000914662
*CONN
*I *249:B1 I *D sky130_fd_sc_hd__o211a_1
*I *248:Y O *D sky130_fd_sc_hd__o21bai_1
*CAP
1 *249:B1 0.00021897
2 *248:Y 0.00021897
3 *249:B1 *45:12 2.01737e-05
4 *243:A_N *249:B1 1.31297e-05
5 *248:A1 *249:B1 4.66108e-05
6 *248:A2 *249:B1 1.42598e-05
7 *249:A2 *249:B1 3.7837e-05
8 *249:C1 *249:B1 3.13354e-05
9 *38:12 *249:B1 0.000313375
*RES
1 *248:Y *249:B1 8.855 
*END

*D_NET *45 0.00127457
*CONN
*I *250:A I *D sky130_fd_sc_hd__clkbuf_4
*I *279:A2 I *D sky130_fd_sc_hd__o2111a_1
*I *249:X O *D sky130_fd_sc_hd__o211a_1
*CAP
1 *250:A 0
2 *279:A2 0.000254413
3 *249:X 0.000124063
4 *45:12 0.000378476
5 *279:A2 *278:B 4.60814e-05
6 *279:A2 *279:C1 1.07593e-05
7 *279:A2 *84:12 2.88357e-05
8 *279:A2 *84:27 0.000215101
9 *249:B1 *45:12 2.01737e-05
10 *41:120 *279:A2 0.000196669
*RES
1 *249:X *45:12 7.43 
2 *45:12 *279:A2 11.15 
3 *45:12 *250:A 1.6 
*END

*D_NET *46 0.0135974
*CONN
*I *281:A2 I *D sky130_fd_sc_hd__o211a_1
*I *261:A2 I *D sky130_fd_sc_hd__o211a_1
*I *257:A2 I *D sky130_fd_sc_hd__o2111a_1
*I *265:A2 I *D sky130_fd_sc_hd__o211a_1
*I *272:A2 I *D sky130_fd_sc_hd__o211a_1
*I *285:A2 I *D sky130_fd_sc_hd__o211a_1
*I *287:A2 I *D sky130_fd_sc_hd__o211a_1
*I *276:A2 I *D sky130_fd_sc_hd__o211a_1
*I *268:A2 I *D sky130_fd_sc_hd__o2111a_1
*I *254:A2 I *D sky130_fd_sc_hd__o211a_1
*I *250:X O *D sky130_fd_sc_hd__clkbuf_4
*CAP
1 *281:A2 7.96848e-05
2 *261:A2 0.0001889
3 *257:A2 0
4 *265:A2 7.61846e-05
5 *272:A2 0
6 *285:A2 0.000333992
7 *287:A2 3.43921e-05
8 *276:A2 2.72986e-05
9 *268:A2 1.16861e-05
10 *254:A2 1.8855e-05
11 *250:X 8.33846e-05
12 *46:77 0.000522277
13 *46:66 0.000362919
14 *46:62 0.000244846
15 *46:58 0.000312117
16 *46:43 0.000426287
17 *46:32 0.000535085
18 *46:28 0.000808221
19 *46:16 0.00131947
20 *46:6 0.000759861
21 *261:A2 *261:B1 3.13354e-05
22 *261:A2 *294:CLK 3.83194e-05
23 *265:A2 *265:B1 1.75875e-05
24 *265:A2 *55:17 8.75255e-05
25 *265:A2 *55:31 3.64998e-06
26 *268:A2 *266:A 4.66108e-05
27 *268:A2 *308:A 4.82919e-05
28 *276:A2 *276:B1 3.12916e-05
29 *281:A2 *316:A 4.41897e-05
30 *281:A2 *97:10 9.22308e-05
31 *285:A2 *283:A2 3.03989e-05
32 *285:A2 *284:B 9.23635e-05
33 *285:A2 *285:B1 0.000116938
34 *285:A2 *285:C1 1.14192e-05
35 *285:A2 *287:B1 5.34461e-05
36 *285:A2 *302:CLK 0.000113831
37 *285:A2 *49:18 0.000166345
38 *285:A2 *75:23 8.97727e-05
39 *46:16 *242:B 5.69216e-05
40 *46:16 *76:59 0.000154463
41 *46:16 *76:70 0.000159533
42 *46:16 *78:60 0.000247793
43 *46:16 *87:12 0.00014034
44 *46:16 *97:10 4.77719e-05
45 *46:28 *257:B1 4.00523e-05
46 *46:28 *257:D1 8.61546e-05
47 *46:28 *76:59 9.14049e-05
48 *46:28 *78:25 0.000110018
49 *46:28 *78:34 7.58994e-05
50 *46:28 *78:60 9.28346e-05
51 *46:32 *257:D1 2.17837e-05
52 *46:43 *254:C1 2.68464e-05
53 *46:43 *266:A 8.40269e-05
54 *46:43 *308:A 0.000300705
55 *46:58 *272:B1 4.00541e-06
56 *46:58 *49:22 9.50342e-06
57 *46:58 *49:24 0.000244221
58 *46:58 *49:28 0.000259901
59 *46:62 *272:B1 3.64496e-05
60 *46:62 *55:31 2.76356e-05
61 *46:66 *239:D 0.000114643
62 *46:66 *270:A1 0.000116158
63 *46:66 *274:B 6.69613e-05
64 *46:66 *287:B1 0.000134756
65 *46:66 *49:22 3.26653e-05
66 *46:66 *81:25 0.000283164
67 *46:66 *81:44 7.03276e-05
68 *46:77 *239:C 0.000116277
69 *46:77 *287:B1 0.000349817
70 *243:D *46:16 0.000112595
71 *244:A *46:16 9.37846e-05
72 *257:A1 *46:32 0.000658633
73 *261:A1 *261:A2 2.11323e-05
74 *261:A1 *46:16 0.000400055
75 *265:A1 *265:A2 0.000159165
76 *265:A1 *46:58 0
77 *281:A1 *46:16 1.46781e-05
78 *292:D *46:32 5.30673e-05
79 *293:D *46:28 0.000186182
80 *294:D *261:A2 4.66108e-05
81 *41:21 *285:A2 1.38283e-05
82 *41:31 *285:A2 1.64056e-05
83 *41:31 *46:77 4.61448e-05
84 *41:51 *265:A2 3.57349e-05
85 *41:51 *46:62 0.00018876
86 *41:57 *46:58 0.000453309
87 *41:70 *254:A2 9.13949e-06
88 *41:70 *46:32 2.20014e-05
89 *41:70 *46:43 5.08783e-05
90 *41:120 *46:6 6.60042e-05
91 *41:120 *46:16 8.52845e-05
*RES
1 *250:X *46:6 2.74 
2 *46:6 *46:16 17.66 
3 *46:16 *46:28 13.115 
4 *46:28 *46:32 7.02 
5 *46:32 *254:A2 1.96 
6 *46:32 *46:43 4.95 
7 *46:43 *268:A2 2.05 
8 *46:43 *46:58 10.33 
9 *46:58 *46:62 1.845 
10 *46:62 *46:66 7.46 
11 *46:66 *276:A2 4.215 
12 *46:66 *46:77 4.185 
13 *46:77 *287:A2 4.215 
14 *46:77 *285:A2 11.94 
15 *46:62 *272:A2 1.6 
16 *46:58 *265:A2 4.135 
17 *46:28 *257:A2 1.6 
18 *46:16 *261:A2 6.045 
19 *46:6 *281:A2 7.235 
*END

*D_NET *47 0.000447452
*CONN
*I *254:B1 I *D sky130_fd_sc_hd__o211a_1
*I *251:Y O *D sky130_fd_sc_hd__inv_2
*CAP
1 *254:B1 0.000209621
2 *251:Y 0.000209621
3 *254:B1 *254:C1 8.30853e-06
4 *292:D *254:B1 1.99007e-05
*RES
1 *251:Y *254:B1 9.735 
*END

*D_NET *48 0.00139459
*CONN
*I *253:A I *D sky130_fd_sc_hd__clkbuf_4
*I *279:D1 I *D sky130_fd_sc_hd__o2111a_1
*I *252:Y O *D sky130_fd_sc_hd__inv_2
*CAP
1 *253:A 0.000170885
2 *279:D1 6.43892e-05
3 *252:Y 0.000268249
4 *48:8 0.000503523
5 *253:A *280:B 2.67157e-05
6 *279:D1 *278:B 8.17012e-06
7 *279:D1 *280:B 1.96308e-05
8 *279:D1 *66:10 2.69443e-06
9 *48:8 *75:38 8.64488e-05
10 *48:8 *75:53 0.000228819
11 *299:D *48:8 1.50648e-05
*RES
1 *252:Y *48:8 7.155 
2 *48:8 *279:D1 4.5975 
3 *48:8 *253:A 6.51 
*END

*D_NET *49 0.0148471
*CONN
*I *281:C1 I *D sky130_fd_sc_hd__o211a_1
*I *285:C1 I *D sky130_fd_sc_hd__o211a_1
*I *287:C1 I *D sky130_fd_sc_hd__o211a_1
*I *276:C1 I *D sky130_fd_sc_hd__o211a_1
*I *272:C1 I *D sky130_fd_sc_hd__o211a_1
*I *261:C1 I *D sky130_fd_sc_hd__o211a_1
*I *265:C1 I *D sky130_fd_sc_hd__o211a_1
*I *257:D1 I *D sky130_fd_sc_hd__o2111a_1
*I *254:C1 I *D sky130_fd_sc_hd__o211a_1
*I *268:D1 I *D sky130_fd_sc_hd__o2111a_1
*I *253:X O *D sky130_fd_sc_hd__clkbuf_4
*CAP
1 *281:C1 0.000504085
2 *285:C1 5.5352e-05
3 *287:C1 0
4 *276:C1 0
5 *272:C1 0
6 *261:C1 0.000502909
7 *265:C1 3.51653e-05
8 *257:D1 0.000621506
9 *254:C1 6.32162e-05
10 *268:D1 0.000147265
11 *253:X 0
12 *49:73 0.0010008
13 *49:39 0.000982133
14 *49:28 0.000573959
15 *49:24 0.000688188
16 *49:22 0.000279419
17 *49:20 0.000298071
18 *49:18 0.000359661
19 *49:12 0.000875527
20 *49:4 0.00107943
21 *257:D1 *257:B1 8.52845e-05
22 *261:C1 *261:B1 4.77757e-05
23 *261:C1 *262:B 5.08127e-05
24 *261:C1 *264:B 0.000383656
25 *261:C1 *265:B1 8.52883e-05
26 *261:C1 *55:6 2.47149e-05
27 *261:C1 *80:10 1.1561e-05
28 *261:C1 *80:30 6.99988e-05
29 *261:C1 *93:16 0.000205294
30 *265:C1 *264:A 9.13949e-06
31 *265:C1 *264:B 1.01319e-05
32 *265:C1 *265:B1 6.37573e-05
33 *265:C1 *55:6 6.69608e-06
34 *265:C1 *55:17 1.31297e-05
35 *268:D1 *308:A 6.6925e-05
36 *281:C1 *281:B1 0.000158073