*SPEF "ieee 1481-1999"
*DESIGN "digital_cs"
*DATE "11:11:11 Fri 11 11, 1111"
*VENDOR "OpenRCX"
*PROGRAM "Parallel Extraction"
*VERSION "1.0"
*DESIGN_FLOW "NAME_SCOPE LOCAL" "PIN_CAP NONE"
*DIVIDER /
*DELIMITER :
*BUS_DELIMITER []
*T_UNIT 1 NS
*C_UNIT 1 PF
*R_UNIT 1 OHM
*L_UNIT 1 HENRY

*NAME_MAP
*3 clk
*4 enable
*5 f_select[0]
*6 f_select[1]
*7 f_select[2]
*8 f_select[3]
*9 f_select[4]
*10 f_select[5]
*11 f_select[6]
*12 f_select[7]
*13 net1
*14 net2
*15 net3
*16 net4
*17 FILLER_0_0_15
*18 FILLER_0_0_27
*19 FILLER_0_0_29
*20 FILLER_0_0_3
*21 FILLER_0_0_41
*22 FILLER_0_0_49
*23 FILLER_0_0_55
*24 FILLER_0_0_57
*25 FILLER_0_0_69
*26 FILLER_0_10_15
*27 FILLER_0_10_27
*28 FILLER_0_10_29
*29 FILLER_0_10_3
*30 FILLER_0_10_41
*31 FILLER_0_10_53
*32 FILLER_0_10_65
*33 FILLER_0_10_77
*34 FILLER_0_11_15
*35 FILLER_0_11_27
*36 FILLER_0_11_3
*37 FILLER_0_11_39
*38 FILLER_0_11_51
*39 FILLER_0_11_55
*40 FILLER_0_11_57
*41 FILLER_0_11_69
*42 FILLER_0_12_15
*43 FILLER_0_12_27
*44 FILLER_0_12_29
*45 FILLER_0_12_3
*46 FILLER_0_12_41
*47 FILLER_0_12_53
*48 FILLER_0_12_65
*49 FILLER_0_12_77
*50 FILLER_0_13_21
*51 FILLER_0_13_27
*52 FILLER_0_13_29
*53 FILLER_0_13_41
*54 FILLER_0_13_53
*55 FILLER_0_13_57
*56 FILLER_0_13_69
*57 FILLER_0_13_9
*58 FILLER_0_1_15
*59 FILLER_0_1_27
*60 FILLER_0_1_3
*61 FILLER_0_1_39
*62 FILLER_0_1_51
*63 FILLER_0_1_55
*64 FILLER_0_1_57
*65 FILLER_0_1_69
*66 FILLER_0_2_15
*67 FILLER_0_2_27
*68 FILLER_0_2_29
*69 FILLER_0_2_3
*70 FILLER_0_2_41
*71 FILLER_0_2_53
*72 FILLER_0_2_65
*73 FILLER_0_2_77
*74 FILLER_0_3_15
*75 FILLER_0_3_27
*76 FILLER_0_3_3
*77 FILLER_0_3_39
*78 FILLER_0_3_51
*79 FILLER_0_3_55
*80 FILLER_0_3_57
*81 FILLER_0_3_69
*82 FILLER_0_4_15
*83 FILLER_0_4_27
*84 FILLER_0_4_29
*85 FILLER_0_4_3
*86 FILLER_0_4_41
*87 FILLER_0_4_53
*88 FILLER_0_4_65
*89 FILLER_0_4_77
*90 FILLER_0_5_15
*91 FILLER_0_5_27
*92 FILLER_0_5_3
*93 FILLER_0_5_39
*94 FILLER_0_5_51
*95 FILLER_0_5_55
*96 FILLER_0_5_57
*97 FILLER_0_5_69
*98 FILLER_0_6_15
*99 FILLER_0_6_27
*100 FILLER_0_6_29
*101 FILLER_0_6_3
*102 FILLER_0_6_41
*103 FILLER_0_6_53
*104 FILLER_0_6_65
*105 FILLER_0_6_77
*106 FILLER_0_7_15
*107 FILLER_0_7_27
*108 FILLER_0_7_3
*109 FILLER_0_7_39
*110 FILLER_0_7_51
*111 FILLER_0_7_55
*112 FILLER_0_7_57
*113 FILLER_0_7_69
*114 FILLER_0_8_15
*115 FILLER_0_8_27
*116 FILLER_0_8_29
*117 FILLER_0_8_3
*118 FILLER_0_8_41
*119 FILLER_0_8_53
*120 FILLER_0_8_65
*121 FILLER_0_8_77
*122 FILLER_0_9_15
*123 FILLER_0_9_27
*124 FILLER_0_9_3
*125 FILLER_0_9_39
*126 FILLER_0_9_51
*127 FILLER_0_9_55
*128 FILLER_0_9_57
*129 FILLER_0_9_69
*130 PHY_0
*131 PHY_1
*132 PHY_10
*133 PHY_11
*134 PHY_12
*135 PHY_13
*136 PHY_14
*137 PHY_15
*138 PHY_16
*139 PHY_17
*140 PHY_18
*141 PHY_19
*142 PHY_2
*143 PHY_20
*144 PHY_21
*145 PHY_22
*146 PHY_23
*147 PHY_24
*148 PHY_25
*149 PHY_26
*150 PHY_27
*151 PHY_3
*152 PHY_4
*153 PHY_5
*154 PHY_6
*155 PHY_7
*156 PHY_8
*157 PHY_9
*158 TAP_28
*159 TAP_29
*160 TAP_30
*161 TAP_31
*162 TAP_32
*163 TAP_33
*164 TAP_34
*165 TAP_35
*166 TAP_36
*167 TAP_37
*168 TAP_38
*169 TAP_39
*170 TAP_40
*171 TAP_41
*172 TAP_42
*173 TAP_43
*174 digital_cs_1
*175 digital_cs_2
*176 digital_cs_3
*177 digital_cs_4

*PORTS
clk I
enable I
f_select[0] I
f_select[1] I
f_select[2] I
f_select[3] I
f_select[4] I
f_select[5] I
f_select[6] I
f_select[7] I
phi_l1 O
phi_l2 O
phi_p O
phi_r O

*D_NET *13 0.000817553
*CONN
*P phi_l1 O
*I *174:LO O *D sky130_fd_sc_hd__conb_1
*CAP
1 phi_l1 0.000408777
2 *174:LO 0.000408777
*RES
1 *174:LO phi_l1 21.9607 
*END

*D_NET *14 0.000675503
*CONN
*P phi_l2 O
*I *175:LO O *D sky130_fd_sc_hd__conb_1
*CAP
1 phi_l2 0.000219316
2 *175:LO 0.000219316
3 phi_l2 phi_p 0.000236871
*RES
1 *175:LO phi_l2 19.9411 
*END

*D_NET *15 0.00151959
*CONN
*P phi_p O
*I *176:LO O *D sky130_fd_sc_hd__conb_1
*CAP
1 phi_p 0.000641362
2 *176:LO 0.000641362
3 phi_l2 phi_p 0.000236871
*RES
1 *176:LO phi_p 26.9786 
*END

*D_NET *16 0.000630617
*CONN
*P phi_r O
*I *177:LO O *D sky130_fd_sc_hd__conb_1
*CAP
1 phi_r 0.000315308
2 *177:LO 0.000315308
*RES
1 *177:LO phi_r 18.73 
*END
