*SPEF "ieee 1481-1999"
*DESIGN "digital_cs"
*DATE "11:11:11 Fri 11 11, 1111"
*VENDOR "OpenRCX"
*PROGRAM "Parallel Extraction"
*VERSION "1.0"
*DESIGN_FLOW "NAME_SCOPE LOCAL" "PIN_CAP NONE"
*DIVIDER /
*DELIMITER :
*BUS_DELIMITER []
*T_UNIT 1 NS
*C_UNIT 1 PF
*R_UNIT 1 OHM
*L_UNIT 1 HENRY

*NAME_MAP
*3 clk
*4 enable
*5 f_select[0]
*6 f_select[1]
*7 f_select[2]
*8 f_select[3]
*9 net1
*10 net2
*11 net3
*12 net4
*13 FILLER_0_0_15
*14 FILLER_0_0_27
*15 FILLER_0_0_29
*16 FILLER_0_0_3
*17 FILLER_0_0_34
*18 FILLER_0_0_46
*19 FILLER_0_0_54
*20 FILLER_0_0_57
*21 FILLER_0_0_69
*22 FILLER_0_10_15
*23 FILLER_0_10_27
*24 FILLER_0_10_29
*25 FILLER_0_10_3
*26 FILLER_0_10_41
*27 FILLER_0_10_53
*28 FILLER_0_10_65
*29 FILLER_0_10_77
*30 FILLER_0_11_15
*31 FILLER_0_11_27
*32 FILLER_0_11_3
*33 FILLER_0_11_39
*34 FILLER_0_11_51
*35 FILLER_0_11_55
*36 FILLER_0_11_57
*37 FILLER_0_11_69
*38 FILLER_0_12_18
*39 FILLER_0_12_26
*40 FILLER_0_12_29
*41 FILLER_0_12_41
*42 FILLER_0_12_53
*43 FILLER_0_12_6
*44 FILLER_0_12_65
*45 FILLER_0_12_77
*46 FILLER_0_13_18
*47 FILLER_0_13_26
*48 FILLER_0_13_29
*49 FILLER_0_13_41
*50 FILLER_0_13_53
*51 FILLER_0_13_57
*52 FILLER_0_13_6
*53 FILLER_0_13_69
*54 FILLER_0_1_15
*55 FILLER_0_1_27
*56 FILLER_0_1_3
*57 FILLER_0_1_39
*58 FILLER_0_1_51
*59 FILLER_0_1_55
*60 FILLER_0_1_57
*61 FILLER_0_1_69
*62 FILLER_0_1_77
*63 FILLER_0_2_15
*64 FILLER_0_2_27
*65 FILLER_0_2_29
*66 FILLER_0_2_3
*67 FILLER_0_2_41
*68 FILLER_0_2_53
*69 FILLER_0_2_65
*70 FILLER_0_2_77
*71 FILLER_0_3_15
*72 FILLER_0_3_27
*73 FILLER_0_3_3
*74 FILLER_0_3_39
*75 FILLER_0_3_51
*76 FILLER_0_3_55
*77 FILLER_0_3_57
*78 FILLER_0_3_69
*79 FILLER_0_4_15
*80 FILLER_0_4_27
*81 FILLER_0_4_29
*82 FILLER_0_4_3
*83 FILLER_0_4_41
*84 FILLER_0_4_53
*85 FILLER_0_4_65
*86 FILLER_0_4_77
*87 FILLER_0_5_15
*88 FILLER_0_5_27
*89 FILLER_0_5_3
*90 FILLER_0_5_39
*91 FILLER_0_5_51
*92 FILLER_0_5_55
*93 FILLER_0_5_57
*94 FILLER_0_5_69
*95 FILLER_0_6_15
*96 FILLER_0_6_27
*97 FILLER_0_6_29
*98 FILLER_0_6_3
*99 FILLER_0_6_41
*100 FILLER_0_6_53
*101 FILLER_0_6_65
*102 FILLER_0_6_77
*103 FILLER_0_7_15
*104 FILLER_0_7_27
*105 FILLER_0_7_3
*106 FILLER_0_7_39
*107 FILLER_0_7_51
*108 FILLER_0_7_55
*109 FILLER_0_7_57
*110 FILLER_0_7_69
*111 FILLER_0_8_15
*112 FILLER_0_8_27
*113 FILLER_0_8_29
*114 FILLER_0_8_3
*115 FILLER_0_8_41
*116 FILLER_0_8_53
*117 FILLER_0_8_65
*118 FILLER_0_8_77
*119 FILLER_0_9_15
*120 FILLER_0_9_27
*121 FILLER_0_9_3
*122 FILLER_0_9_39
*123 FILLER_0_9_51
*124 FILLER_0_9_55
*125 FILLER_0_9_57
*126 FILLER_0_9_69
*127 PHY_0
*128 PHY_1
*129 PHY_10
*130 PHY_11
*131 PHY_12
*132 PHY_13
*133 PHY_14
*134 PHY_15
*135 PHY_16
*136 PHY_17
*137 PHY_18
*138 PHY_19
*139 PHY_2
*140 PHY_20
*141 PHY_21
*142 PHY_22
*143 PHY_23
*144 PHY_24
*145 PHY_25
*146 PHY_26
*147 PHY_27
*148 PHY_3
*149 PHY_4
*150 PHY_5
*151 PHY_6
*152 PHY_7
*153 PHY_8
*154 PHY_9
*155 TAP_28
*156 TAP_29
*157 TAP_30
*158 TAP_31
*159 TAP_32
*160 TAP_33
*161 TAP_34
*162 TAP_35
*163 TAP_36
*164 TAP_37
*165 TAP_38
*166 TAP_39
*167 TAP_40
*168 TAP_41
*169 TAP_42
*170 TAP_43
*171 digital_cs_1
*172 digital_cs_2
*173 digital_cs_3
*174 digital_cs_4

*PORTS
clk I
enable I
f_select[0] I
f_select[1] I
f_select[2] I
f_select[3] I
phi_l1 O
phi_l2 O
phi_p O
phi_r O

*D_NET *9 0.00085858
*CONN
*P phi_l1 O
*I *171:LO O *D sky130_fd_sc_hd__conb_1
*CAP
1 phi_l1 0.00042929
2 *171:LO 0.00042929
*RES
1 *171:LO phi_l1 47.4664 
*END

*D_NET *10 0.000519102
*CONN
*P phi_l2 O
*I *172:LO O *D sky130_fd_sc_hd__conb_1
*CAP
1 phi_l2 0.000259551
2 *172:LO 0.000259551
*RES
1 *172:LO phi_l2 49.1767 
*END

*D_NET *11 0.000902059
*CONN
*P phi_p O
*I *173:LO O *D sky130_fd_sc_hd__conb_1
*CAP
1 phi_p 0.000451029
2 *173:LO 0.000451029
*RES
1 *173:LO phi_p 48.1707 
*END

*D_NET *12 0.000609914
*CONN
*P phi_r O
*I *174:LO O *D sky130_fd_sc_hd__conb_1
*CAP
1 phi_r 0.000304957
2 *174:LO 0.000304957
*RES
1 *174:LO phi_r 48.7862 
*END
