*SPEF "ieee 1481-1999"
*DESIGN "pulse_generator"
*DATE "11:11:11 Fri 11 11, 1111"
*VENDOR "OpenRCX"
*PROGRAM "Parallel Extraction"
*VERSION "1.0"
*DESIGN_FLOW "NAME_SCOPE LOCAL" "PIN_CAP NONE"
*DIVIDER /
*DELIMITER :
*BUS_DELIMITER []
*T_UNIT 1 NS
*C_UNIT 1 PF
*R_UNIT 1 OHM
*L_UNIT 1 HENRY

*NAME_MAP
*1 DIVIDE_BY_N[0]
*2 DIVIDE_BY_N[1]
*3 DIVIDE_BY_N[2]
*4 DIVIDE_BY_N[3]
*7 clk
*8 comb_out
*9 rst
*10 sync_out
*11 _000_
*12 _001_
*13 _002_
*14 _003_
*15 _004_
*16 _005_
*17 _006_
*18 _007_
*19 _008_
*20 _009_
*21 _010_
*22 _011_
*23 _012_
*24 _013_
*25 _014_
*26 _015_
*27 _016_
*28 _017_
*29 _018_
*30 _019_
*31 _020_
*32 _021_
*33 _022_
*34 _023_
*35 _024_
*36 _025_
*37 _026_
*38 _027_
*39 _028_
*40 _029_
*41 _030_
*42 _031_
*43 _032_
*44 _033_
*45 _034_
*46 _035_
*47 _036_
*48 _037_
*49 _038_
*50 _039_
*51 _040_
*52 _041_
*53 _042_
*54 _043_
*55 _044_
*56 _045_
*57 _046_
*58 _047_
*59 _048_
*60 _049_
*61 _050_
*62 _051_
*63 _052_
*64 _053_
*65 _054_
*66 _055_
*67 _056_
*68 _057_
*69 _058_
*70 _059_
*71 _060_
*72 _061_
*73 clknet_0_clk
*74 clknet_1_0__leaf_clk
*75 clknet_1_1__leaf_clk
*76 count\[0\]
*77 count\[10\]
*78 count\[1\]
*79 count\[2\]
*80 count\[3\]
*81 count\[4\]
*82 count\[5\]
*83 count\[6\]
*84 count\[7\]
*85 count\[8\]
*86 count\[9\]
*87 net1
*88 net10
*89 net11
*90 net12
*91 net13
*92 net14
*93 net2
*94 net3
*95 net4
*96 net5
*97 net6
*98 net7
*99 net8
*100 net9
*101 FILLER_0_0_49
*102 FILLER_0_0_55
*103 FILLER_0_0_57
*104 FILLER_0_0_67
*105 FILLER_0_0_75
*106 FILLER_0_10_15
*107 FILLER_0_10_22
*108 FILLER_0_10_3
*109 FILLER_0_10_36
*110 FILLER_0_10_50
*111 FILLER_0_10_54
*112 FILLER_0_10_61
*113 FILLER_0_10_67
*114 FILLER_0_10_79
*115 FILLER_0_11_15
*116 FILLER_0_11_3
*117 FILLER_0_11_31
*118 FILLER_0_11_35
*119 FILLER_0_11_53
*120 FILLER_0_11_57
*121 FILLER_0_12_11
*122 FILLER_0_12_29
*123 FILLER_0_12_3
*124 FILLER_0_12_50
*125 FILLER_0_12_58
*126 FILLER_0_12_77
*127 FILLER_0_13_12
*128 FILLER_0_13_24
*129 FILLER_0_13_29
*130 FILLER_0_13_37
*131 FILLER_0_13_47
*132 FILLER_0_13_55
*133 FILLER_0_13_57
*134 FILLER_0_13_69
*135 FILLER_0_1_15
*136 FILLER_0_1_3
*137 FILLER_0_1_55
*138 FILLER_0_1_57
*139 FILLER_0_1_81
*140 FILLER_0_2_15
*141 FILLER_0_2_26
*142 FILLER_0_2_29
*143 FILLER_0_2_3
*144 FILLER_0_2_54
*145 FILLER_0_2_62
*146 FILLER_0_2_66
*147 FILLER_0_2_78
*148 FILLER_0_2_82
*149 FILLER_0_3_27
*150 FILLER_0_3_40
*151 FILLER_0_3_65
*152 FILLER_0_3_77
*153 FILLER_0_4_11
*154 FILLER_0_4_26
*155 FILLER_0_4_29
*156 FILLER_0_4_3
*157 FILLER_0_4_41
*158 FILLER_0_4_53
*159 FILLER_0_5_26
*160 FILLER_0_5_55
*161 FILLER_0_5_65
*162 FILLER_0_5_77
*163 FILLER_0_6_27
*164 FILLER_0_6_47
*165 FILLER_0_6_53
*166 FILLER_0_6_62
*167 FILLER_0_6_72
*168 FILLER_0_6_78
*169 FILLER_0_7_3
*170 FILLER_0_7_34
*171 FILLER_0_7_60
*172 FILLER_0_7_68
*173 FILLER_0_8_27
*174 FILLER_0_8_29
*175 FILLER_0_8_48
*176 FILLER_0_8_60
*177 FILLER_0_8_67
*178 FILLER_0_8_77
*179 FILLER_0_9_15
*180 FILLER_0_9_3
*181 FILLER_0_9_51
*182 FILLER_0_9_55
*183 FILLER_0_9_73
*184 FILLER_0_9_81
*185 PHY_0
*186 PHY_1
*187 PHY_10
*188 PHY_11
*189 PHY_12
*190 PHY_13
*191 PHY_14
*192 PHY_15
*193 PHY_16
*194 PHY_17
*195 PHY_18
*196 PHY_19
*197 PHY_2
*198 PHY_20
*199 PHY_21
*200 PHY_22
*201 PHY_23
*202 PHY_24
*203 PHY_25
*204 PHY_26
*205 PHY_27
*206 PHY_3
*207 PHY_4
*208 PHY_5
*209 PHY_6
*210 PHY_7
*211 PHY_8
*212 PHY_9
*213 TAP_28
*214 TAP_29
*215 TAP_30
*216 TAP_31
*217 TAP_32
*218 TAP_33
*219 TAP_34
*220 TAP_35
*221 TAP_36
*222 TAP_37
*223 TAP_38
*224 TAP_39
*225 TAP_40
*226 TAP_41
*227 TAP_42
*228 TAP_43
*229 _062_
*230 _063_
*231 _064_
*232 _065_
*233 _066_
*234 _067_
*235 _068_
*236 _069_
*237 _070_
*238 _071_
*239 _072_
*240 _073_
*241 _074_
*242 _075_
*243 _076_
*244 _077_
*245 _078_
*246 _079_
*247 _080_
*248 _081_
*249 _082_
*250 _083_
*251 _084_
*252 _085_
*253 _086_
*254 _087_
*255 _088_
*256 _089_
*257 _090_
*258 _091_
*259 _092_
*260 _093_
*261 _094_
*262 _095_
*263 _096_
*264 _097_
*265 _098_
*266 _099_
*267 _100_
*268 _101_
*269 _102_
*270 _103_
*271 _104_
*272 _105_
*273 _106_
*274 _107_
*275 _108_
*276 _109_
*277 _110_
*278 _111_
*279 _112_
*280 _113_
*281 _114_
*282 _115_
*283 _116_
*284 _117_
*285 _118_
*286 _119_
*287 _120_
*288 _121_
*289 _122_
*290 _123_
*291 _124_
*292 _125_
*293 _126_
*294 _127_
*295 _128_
*296 _129_
*297 _130_
*298 _131_
*299 _132_
*300 _133_
*301 _134_
*302 _135_
*303 _136_
*304 clkbuf_0_clk
*305 clkbuf_1_0__f_clk
*306 clkbuf_1_1__f_clk
*307 hold4
*308 hold5
*309 hold6
*310 hold7
*311 input1
*312 input2
*313 input3
*314 input4
*315 input5
*316 output6
*317 output7
*318 rebuffer1
*319 rebuffer2
*320 rebuffer3

*PORTS
DIVIDE_BY_N[0] I
DIVIDE_BY_N[1] I
DIVIDE_BY_N[2] I
DIVIDE_BY_N[3] I
clk I
comb_out O
rst I
sync_out O

*D_NET *1 0.00143535
*CONN
*P DIVIDE_BY_N[0] I
*I *311:A I *D sky130_fd_sc_hd__buf_4
*CAP
1 DIVIDE_BY_N[0] 0.000717675
2 *311:A 0.000717675
*RES
1 DIVIDE_BY_N[0] *311:A 27.7643 
*END

*D_NET *2 0.000845028
*CONN
*P DIVIDE_BY_N[1] I
*I *312:A I *D sky130_fd_sc_hd__clkbuf_2
*CAP
1 DIVIDE_BY_N[1] 0.000422514
2 *312:A 0.000422514
3 *312:A *254:C1 0
*RES
1 DIVIDE_BY_N[1] *312:A 22.0679 
*END

*D_NET *3 0.000791085
*CONN
*P DIVIDE_BY_N[2] I
*I *313:A I *D sky130_fd_sc_hd__clkbuf_2
*CAP
1 DIVIDE_BY_N[2] 0.000395543
2 *313:A 0.000395543
*RES
1 DIVIDE_BY_N[2] *313:A 22.1382 
*END

*D_NET *4 0.000668932
*CONN
*P DIVIDE_BY_N[3] I
*I *314:A I *D sky130_fd_sc_hd__buf_6
*CAP
1 DIVIDE_BY_N[3] 0.000334466
2 *314:A 0.000334466
3 *314:A *298:CLK 0
*RES
1 DIVIDE_BY_N[3] *314:A 21.5661 
*END

*D_NET *7 0.00688628
*CONN
*P clk I
*I *304:A I *D sky130_fd_sc_hd__clkbuf_16
*CAP
1 clk 0.00209018
2 *304:A 0.000594881
3 *7:11 0.00268506
4 *304:A *305:A 0.00101318
5 *304:A *306:A 8.1932e-05
6 *304:A *49:73 0.000220824
7 *7:11 *74:16 4.40474e-05
8 *7:11 *74:43 8.5878e-05
9 *7:11 *74:56 7.03051e-05
*RES
1 clk *7:11 39.6786 
2 *7:11 *304:A 27.8893 
*END

*D_NET *8 0.00109521
*CONN
*P comb_out O
*I *316:X O *D sky130_fd_sc_hd__buf_6
*CAP
1 comb_out 0.000547607
2 *316:X 0.000547607
*RES
1 *316:X comb_out 23.5562 
*END

*D_NET *9 0.00133902
*CONN
*P rst I
*I *315:A I *D sky130_fd_sc_hd__clkbuf_1
*CAP
1 rst 0.000576128
2 *315:A 0.000576128
3 *315:A *316:A 0.000186765
*RES
1 rst *315:A 25.675 
*END

*D_NET *10 0.00137336
*CONN
*P sync_out O
*I *317:X O *D sky130_fd_sc_hd__clkbuf_4
*CAP
1 sync_out 0.00068668
2 *317:X 0.00068668
*RES
1 *317:X sync_out 27.1024 
*END

*D_NET *11 0.000492832
*CONN
*I *292:D I *D sky130_fd_sc_hd__dfxtp_1
*I *254:X O *D sky130_fd_sc_hd__o211a_1
*CAP
1 *292:D 0.000202463
2 *254:X 0.000202463
3 *292:D *251:A 7.99677e-06
4 *292:D *254:B1 1.87336e-05
5 *292:D *46:32 5.62995e-05
6 *292:D *74:66 4.87669e-06
7 *292:D *93:16 0
*RES
1 *254:X *292:D 30.658 
*END

*D_NET *12 0.000485535
*CONN
*I *293:D I *D sky130_fd_sc_hd__dfxtp_2
*I *257:X O *D sky130_fd_sc_hd__o2111a_1
*CAP
1 *293:D 9.48302e-05
2 *257:X 9.48302e-05
3 *293:D *257:B1 8.10939e-05
4 *293:D *46:28 0.000206784
5 *293:D *78:6 7.99677e-06
*RES
1 *257:X *293:D 30.2473 
*END

*D_NET *13 0.000297536
*CONN
*I *294:D I *D sky130_fd_sc_hd__dfxtp_1
*I *261:X O *D sky130_fd_sc_hd__o211a_1
*CAP
1 *294:D 9.45028e-05
2 *261:X 9.45028e-05
3 *294:D *261:A2 5.33005e-05
4 *294:D *294:CLK 5.52302e-05
*RES
1 *261:X *294:D 20.2295 
*END

*D_NET *14 0.000599677
*CONN
*I *295:D I *D sky130_fd_sc_hd__dfxtp_1
*I *265:X O *D sky130_fd_sc_hd__o211a_1
*CAP
1 *295:D 0.000175532
2 *265:X 0.000175532
3 *295:D *41:57 7.89362e-05
4 *295:D *49:73 0.000169676
*RES
1 *265:X *295:D 31.6045 
*END

*D_NET *15 0.00106272
*CONN
*I *296:D I *D sky130_fd_sc_hd__dfxtp_1
*I *268:X O *D sky130_fd_sc_hd__o2111a_1
*CAP
1 *296:D 0.000267763
2 *268:X 0.000267763
3 *296:D *74:16 0.000496326
4 *296:D *81:8 3.08664e-05
*RES
1 *268:X *296:D 24.1045 
*END

*D_NET *16 0.000844885
*CONN
*I *297:D I *D sky130_fd_sc_hd__dfxtp_1
*I *272:X O *D sky130_fd_sc_hd__o211a_1
*CAP
1 *297:D 0.000315252
2 *272:X 0.000315252
3 *297:D *41:47 0.000214382
*RES
1 *272:X *297:D 24.658 
*END

*D_NET *17 0.000945828
*CONN
*I *298:D I *D sky130_fd_sc_hd__dfxtp_1
*I *276:X O *D sky130_fd_sc_hd__o211a_1
*CAP
1 *298:D 0.000333827
2 *276:X 0.000333827
3 *298:D *239:D 5.47047e-05
4 *298:D *41:47 0.000223469
*RES
1 *276:X *298:D 24.1045 
*END

*D_NET *18 0.000653124
*CONN
*I *299:D I *D sky130_fd_sc_hd__dfxtp_1
*I *279:X O *D sky130_fd_sc_hd__o2111a_1
*CAP
1 *299:D 0.000237441
2 *279:X 0.000237441
3 *299:D *278:B 0.000143375
4 *299:D *48:8 1.74179e-05
5 *299:D *75:53 1.74503e-05
*RES
1 *279:X *299:D 30.9973 
*END

*D_NET *19 0.00084438
*CONN
*I *300:D I *D sky130_fd_sc_hd__dfxtp_1
*I *281:X O *D sky130_fd_sc_hd__o211a_1
*CAP
1 *300:D 0.000197965
2 *281:X 0.000197965
3 *300:D *300:CLK 0.00026142
4 *300:D *303:CLK 0.000101771
5 *300:D *316:A 3.19595e-05
6 *300:D *75:53 5.33005e-05
*RES
1 *281:X *300:D 31.9795 
*END

*D_NET *20 0.000304106
*CONN
*I *301:D I *D sky130_fd_sc_hd__dfxtp_1
*I *285:X O *D sky130_fd_sc_hd__o211a_1
*CAP
1 *301:D 0.000143836
2 *285:X 0.000143836
3 *301:D *301:CLK 1.64343e-05
*RES
1 *285:X *301:D 29.6402 
*END

*D_NET *21 0.000252006
*CONN
*I *302:D I *D sky130_fd_sc_hd__dfxtp_1
*I *287:X O *D sky130_fd_sc_hd__o211a_1
*CAP
1 *302:D 9.53622e-05
2 *287:X 9.53622e-05
3 *302:D *240:A 3.04149e-05
4 *302:D *302:CLK 3.08664e-05
*RES
1 *287:X *302:D 20.2295 
*END

*D_NET *22 0.00203564
*CONN
*I *320:A I *D sky130_fd_sc_hd__dlygate4sd1_1
*I *290:B I *D sky130_fd_sc_hd__and3_1
*I *288:X O *D sky130_fd_sc_hd__or4_4
*CAP
1 *320:A 0.000224552
2 *290:B 0.000309112
3 *288:X 0
4 *22:6 0.000533665
5 *290:B *229:A2 1.00887e-05
6 *290:B *229:B1 0.000195394
7 *290:B *238:B 0.000182811
8 *290:B *35:14 0.000188623
9 *290:B *93:33 2.16573e-05
10 *290:B *93:61 3.6331e-05
11 *320:A *319:A 2.48421e-05
12 *320:A *35:14 0.000303018
13 *320:A *93:61 5.54817e-06
*RES
1 *288:X *22:6 13.8 
2 *22:6 *290:B 19.6393 
3 *22:6 *320:A 18.8179 
*END

*D_NET *23 0.00457233
*CONN
*I *231:A2 I *D sky130_fd_sc_hd__a21oi_1
*I *290:C I *D sky130_fd_sc_hd__and3_1
*I *289:Y O *D sky130_fd_sc_hd__o31ai_1
*CAP
1 *231:A2 0.000766636
2 *290:C 0.00011123
3 *289:Y 0.000532678
4 *23:10 0.00141054
5 *231:A2 *231:A1 3.85726e-05
6 *231:A2 *231:B1 0.000577584
7 *231:A2 *247:B1 1.19813e-05
8 *231:A2 *319:A 6.51998e-05
9 *231:A2 *24:8 0.000261845
10 *231:A2 *93:61 2.20029e-05
11 *290:C *290:A 2.28132e-05
12 *290:C *24:8 0.000146398
13 *290:C *26:6 3.98803e-05
14 *290:C *93:33 3.51971e-05
15 *290:C *93:61 1.06172e-05
16 *23:10 *288:A 8.43535e-06
17 *23:10 *289:A3 0.000179656
18 *23:10 *289:B1 6.05161e-06
19 *23:10 *93:37 0.000293424
20 *23:10 *94:12 3.15815e-05
*RES
1 *289:Y *23:10 20.8179 
2 *23:10 *290:C 16.1393 
3 *23:10 *231:A2 25.925 
*END

*D_NET *24 0.00267042
*CONN
*I *248:A1 I *D sky130_fd_sc_hd__o21bai_1
*I *233:A I *D sky130_fd_sc_hd__or4_4
*I *290:X O *D sky130_fd_sc_hd__and3_1
*CAP
1 *248:A1 0.000162976
2 *233:A 9.2376e-05
3 *290:X 0.000237115
4 *24:8 0.000492467
5 *233:A *233:D 0.000101982
6 *233:A *248:B1_N 0.000173715
7 *233:A *28:16 9.57407e-05
8 *248:A1 *248:A2 0.000162101
9 *248:A1 *249:B1 5.33005e-05
10 *248:A1 *27:8 7.89362e-05
11 *24:8 *319:A 2.11693e-05
12 *24:8 *27:8 0.000590301
13 *231:A2 *24:8 0.000261845
14 *290:C *24:8 0.000146398
*RES
1 *290:X *24:8 21.5143 
2 *24:8 *233:A 16.8179 
3 *24:8 *248:A1 17.1929 
*END

*D_NET *25 0.00213847
*CONN
*I *232:A1 I *D sky130_fd_sc_hd__a21oi_1
*I *230:B I *D sky130_fd_sc_hd__and3_1
*I *238:B I *D sky130_fd_sc_hd__nor2_1
*I *291:X O *D sky130_fd_sc_hd__or3_1
*CAP
1 *232:A1 4.68033e-05
2 *230:B 0
3 *238:B 0.000317441
4 *291:X 0.000140248
5 *25:16 0.000425988
6 *25:12 0.000295598
7 *232:A1 *230:A 2.66491e-05
8 *232:A1 *232:A2 5.50052e-05
9 *232:A1 *260:B 5.33005e-05
10 *232:A1 *79:36 8.29398e-06
11 *238:B *229:A1 3.1001e-05
12 *238:B *290:A 0.000210906
13 *238:B *26:6 1.287e-05
14 *238:B *35:14 1.15659e-05
15 *25:12 *233:D 6.96346e-05
16 *25:12 *94:12 5.50052e-05
17 *25:16 *232:A2 0.000185118
18 *25:16 *290:A 1.02301e-05
19 *290:B *238:B 0.000182811
*RES
1 *291:X *25:12 20.7821 
2 *25:12 *25:16 2.5 
3 *25:16 *238:B 15.6393 
4 *25:16 *230:B 9.3 
5 *25:12 *232:A1 10.675 
*END

*D_NET *26 0.00133894
*CONN
*I *232:A2 I *D sky130_fd_sc_hd__a21oi_1
*I *230:C I *D sky130_fd_sc_hd__and3_1
*I *229:Y O *D sky130_fd_sc_hd__o21ai_1
*CAP
1 *232:A2 0.000105837
2 *230:C 0
3 *229:Y 0.000276392
4 *26:6 0.000382229
5 *232:A2 *230:A 0.000140907
6 *232:A2 *231:B1 5.74242e-05
7 *232:A2 *80:30 1.00887e-05
8 *26:6 *290:A 7.31915e-05
9 *232:A1 *232:A2 5.50052e-05
10 *238:B *26:6 1.287e-05
11 *290:C *26:6 3.98803e-05
12 *25:16 *232:A2 0.000185118
*RES
1 *229:Y *26:6 12.5946 
2 *26:6 *230:C 9.3 
3 *26:6 *232:A2 21.4518 
*END

*D_NET *27 0.00274709
*CONN
*I *248:A2 I *D sky130_fd_sc_hd__o21bai_1
*I *233:B I *D sky130_fd_sc_hd__or4_4
*I *230:X O *D sky130_fd_sc_hd__and3_1
*CAP
1 *248:A2 0.000243705
2 *233:B 0.000122721
3 *230:X 0.000259748
4 *27:8 0.000626175
5 *233:B *248:B1_N 0.000132852
6 *233:B *28:16 6.55564e-05
7 *248:A2 *249:B1 1.47872e-05
8 *27:8 *231:B1 0.000393515
9 *27:8 *80:30 5.66943e-05
10 *248:A1 *248:A2 0.000162101
11 *248:A1 *27:8 7.89362e-05
12 *24:8 *27:8 0.000590301
*RES
1 *230:X *27:8 22.425 
2 *27:8 *233:B 15.5679 
3 *27:8 *248:A2 18.0321 
*END

*D_NET *28 0.00224952
*CONN
*I *233:C I *D sky130_fd_sc_hd__or4_4
*I *248:B1_N I *D sky130_fd_sc_hd__o21bai_1
*I *231:Y O *D sky130_fd_sc_hd__a21oi_1
*CAP
1 *233:C 0
2 *248:B1_N 0.000226476
3 *231:Y 0.000414127
4 *28:16 0.000640603
5 *248:B1_N *35:14 3.37618e-05
6 *28:16 *231:A1 5.33005e-05
7 *28:16 *233:D 4.58624e-05
8 *28:16 *242:A 3.41517e-06
9 *28:16 *249:A2 2.34188e-05
10 *28:16 *261:A1 0.000240708
11 *28:16 *30:12 9.99853e-05
12 *233:A *248:B1_N 0.000173715
13 *233:A *28:16 9.57407e-05
14 *233:B *248:B1_N 0.000132852
15 *233:B *28:16 6.55564e-05
*RES
1 *231:Y *28:16 26.742 
2 *28:16 *248:B1_N 22.9652 
3 *28:16 *233:C 9.3 
*END

*D_NET *29 0.00184138
*CONN
*I *233:D I *D sky130_fd_sc_hd__or4_4
*I *232:Y O *D sky130_fd_sc_hd__a21oi_1
*CAP
1 *233:D 0.000649487
2 *232:Y 0.000649487
3 *233:D *231:A1 2.16482e-05
4 *233:D *260:B 0.000131267
5 *233:D *318:A 0.00014852
6 *233:D *87:62 2.34969e-05
7 *233:A *233:D 0.000101982
8 *25:12 *233:D 6.96346e-05
9 *28:16 *233:D 4.58624e-05
*RES
1 *232:Y *233:D 39.2607 
*END

*D_NET *30 0.0015876
*CONN
*I *243:A_N I *D sky130_fd_sc_hd__and4b_1
*I *249:A1 I *D sky130_fd_sc_hd__o211a_1
*I *233:X O *D sky130_fd_sc_hd__or4_4
*CAP
1 *243:A_N 0.000419751
2 *249:A1 0
3 *233:X 0.000186446
4 *30:12 0.000606197
5 *243:A_N *243:C 4.56086e-05
6 *243:A_N *243:D 1.14548e-05
7 *243:A_N *249:A2 0.000136771
8 *243:A_N *249:B1 1.34631e-05
9 *243:A_N *249:C1 2.6269e-05
10 *30:12 *249:A2 4.16517e-05
11 *28:16 *30:12 9.99853e-05
*RES
1 *233:X *30:12 21.1929 
2 *30:12 *249:A1 9.3 
3 *30:12 *243:A_N 16.0679 
*END

*D_NET *31 0.00147942
*CONN
*I *246:B I *D sky130_fd_sc_hd__nand2_1
*I *235:B I *D sky130_fd_sc_hd__nor2_1
*I *236:B2 I *D sky130_fd_sc_hd__a2bb2o_1
*I *234:X O *D sky130_fd_sc_hd__xor2_1
*CAP
1 *246:B 0.00027242
2 *235:B 3.55068e-05
3 *236:B2 0
4 *234:X 0.00018872
5 *31:14 6.40342e-05
6 *31:12 0.000489668
7 *235:B *236:B1 5.65955e-05
8 *235:B *247:B1 9.99853e-05
9 *235:B *78:79 5.38444e-06
10 *235:B *78:90 1.32056e-05
11 *246:B *236:B1 2.78512e-05
12 *246:B *246:A 1.46231e-05
13 *246:B *247:B1 1.13883e-05
14 *246:B *78:90 5.57265e-05
15 *31:12 *236:A2_N 1.83136e-05
16 *31:12 *247:B1 2.8604e-05
17 *31:12 *87:35 7.89362e-05
18 *31:14 *78:79 1.8461e-05
*RES
1 *234:X *31:12 21.1036 
2 *31:12 *31:14 0.732143 
3 *31:14 *236:B2 9.3 
4 *31:14 *235:B 10.675 
5 *31:12 *246:B 13.3357 
*END

*D_NET *32 0.00063386
*CONN
*I *247:A1 I *D sky130_fd_sc_hd__o21a_1
*I *237:A I *D sky130_fd_sc_hd__nor2_1
*I *235:Y O *D sky130_fd_sc_hd__nor2_1
*CAP
1 *247:A1 7.43182e-05
2 *237:A 0
3 *235:Y 0.000158414
4 *32:16 0.000232732
5 *247:A1 *237:B 3.62509e-05
6 *247:A1 *243:B 3.08664e-05
7 *32:16 *237:B 8.29398e-06
8 *32:16 *247:B1 5.66472e-05
9 *32:16 *98:20 3.6337e-05
*RES
1 *235:Y *32:16 21.1393 
2 *32:16 *237:A 9.3 
3 *32:16 *247:A1 11.0857 
*END

*D_NET *33 0.000678835
*CONN
*I *237:B I *D sky130_fd_sc_hd__nor2_1
*I *247:A2 I *D sky130_fd_sc_hd__o21a_1
*I *236:X O *D sky130_fd_sc_hd__a2bb2o_1
*CAP
1 *237:B 5.12207e-05
2 *247:A2 1.10478e-05
3 *236:X 0.00012335
4 *33:14 0.000185618
5 *237:B *243:B 1.13883e-05
6 *33:14 *242:B 0.000114011
7 *33:14 *243:B 1.03105e-05
8 *33:14 *247:B1 7.89362e-05
9 *33:14 *87:27 4.84073e-05
10 *247:A1 *237:B 3.62509e-05
11 *32:16 *237:B 8.29398e-06
*RES
1 *236:X *33:14 21.1214 
2 *33:14 *247:A2 9.72857 
3 *33:14 *237:B 10.675 
*END

*D_NET *34 0.000690678
*CONN
*I *243:B I *D sky130_fd_sc_hd__and4b_1
*I *237:Y O *D sky130_fd_sc_hd__nor2_1
*CAP
1 *243:B 0.000230099
2 *237:Y 0.000230099
3 *243:B *87:12 0.000125542
4 *243:B *87:27 5.23735e-05
5 *237:B *243:B 1.13883e-05
6 *247:A1 *243:B 3.08664e-05
7 *33:14 *243:B 1.03105e-05
*RES
1 *237:Y *243:B 31.4214 
*END

*D_NET *35 0.00289738
*CONN
*I *279:A1 I *D sky130_fd_sc_hd__o2111a_1
*I *245:A I *D sky130_fd_sc_hd__clkbuf_4
*I *241:A I *D sky130_fd_sc_hd__nor2_1
*I *238:Y O *D sky130_fd_sc_hd__nor2_1
*CAP
1 *279:A1 0.000169409
2 *245:A 0
3 *241:A 2.39772e-05
4 *238:Y 0.000533677
5 *35:29 0.000332986
6 *35:14 0.000721232
7 *241:A *38:12 3.11088e-05
8 *279:A1 *41:8 2.12647e-05
9 *279:A1 *85:20 0.000249701
10 *35:14 *229:A1 9.99853e-05
11 *35:14 *240:A 3.43332e-05
12 *35:14 *87:62 4.42631e-05
13 *35:29 *85:20 9.84729e-05
14 *238:B *35:14 1.15659e-05
15 *248:B1_N *35:14 3.37618e-05
16 *290:B *35:14 0.000188623
17 *320:A *35:14 0.000303018
*RES
1 *238:Y *35:14 25.05 
2 *35:14 *241:A 14.3357 
3 *35:14 *35:29 7.39286 
4 *35:29 *245:A 9.3 
5 *35:29 *279:A1 22.1036 
*END

*D_NET *36 0.00203098
*CONN
*I *240:D I *D sky130_fd_sc_hd__or4_1
*I *239:X O *D sky130_fd_sc_hd__or4_1
*CAP
1 *240:D 0.000620021
2 *239:X 0.000620021
3 *240:D *239:A 0.000305404
4 *240:D *240:B 1.12578e-05
5 *240:D *240:C 5.49995e-05
6 *240:D *274:A 3.18747e-05
7 *240:D *274:B 4.73945e-05
8 *240:D *306:A 0.000340011
*RES
1 *239:X *240:D 38.2786 
*END

*D_NET *37 0.000147776
*CONN
*I *241:B I *D sky130_fd_sc_hd__nor2_1
*I *240:X O *D sky130_fd_sc_hd__or4_1
*CAP
1 *241:B 6.91545e-05
2 *240:X 6.91545e-05
3 *241:B *240:C 3.41517e-06
4 *241:B *38:12 6.05161e-06
*RES
1 *240:X *241:B 19.8679 
*END

*D_NET *38 0.00224634
*CONN
*I *243:C I *D sky130_fd_sc_hd__and4b_1
*I *249:C1 I *D sky130_fd_sc_hd__o211a_1
*I *241:Y O *D sky130_fd_sc_hd__nor2_1
*CAP
1 *243:C 0.000151204
2 *249:C1 4.11443e-05
3 *241:Y 0.000670002
4 *38:12 0.000862351
5 *243:C *243:D 2.3541e-05
6 *249:C1 *249:A2 1.24368e-05
7 *249:C1 *249:B1 3.50166e-05
8 *38:12 *249:A2 6.8377e-06
9 *38:12 *249:B1 0.000334764
10 *241:A *38:12 3.11088e-05
11 *241:B *38:12 6.05161e-06
12 *243:A_N *243:C 4.56086e-05
13 *243:A_N *249:C1 2.6269e-05
*RES
1 *241:Y *38:12 19.0321 
2 *38:12 *249:C1 10.5679 
3 *38:12 *243:C 11.9071 
*END

*D_NET *39 0.000628457
*CONN
*I *243:D I *D sky130_fd_sc_hd__and4b_1
*I *242:Y O *D sky130_fd_sc_hd__nand2_1
*CAP
1 *243:D 0.000124692
2 *242:Y 0.000124692
3 *243:D *249:A2 9.75679e-05
4 *243:D *46:16 0.000124019
5 *243:D *87:12 0.00012249
6 *243:A_N *243:D 1.14548e-05
7 *243:C *243:D 2.3541e-05
*RES
1 *242:Y *243:D 30.4259 
*END

*D_NET *40 0.00026835
*CONN
*I *244:A I *D sky130_fd_sc_hd__clkbuf_2
*I *243:X O *D sky130_fd_sc_hd__and4b_1
*CAP
1 *244:A 3.1499e-05
2 *243:X 3.1499e-05
3 *244:A *261:A1 0.000101915
4 *244:A *46:16 0.000103437
*RES
1 *243:X *244:A 28.9393 
*END

*D_NET *41 0.0163143
*CONN
*I *281:A1 I *D sky130_fd_sc_hd__o211a_1
*I *261:A1 I *D sky130_fd_sc_hd__o211a_1
*I *287:A1 I *D sky130_fd_sc_hd__o211a_1
*I *276:A1 I *D sky130_fd_sc_hd__o211a_1
*I *272:A1 I *D sky130_fd_sc_hd__o211a_1
*I *265:A1 I *D sky130_fd_sc_hd__o211a_1
*I *257:A1 I *D sky130_fd_sc_hd__o2111a_1
*I *254:A1 I *D sky130_fd_sc_hd__o211a_1
*I *268:A1 I *D sky130_fd_sc_hd__o2111a_1
*I *285:A1 I *D sky130_fd_sc_hd__o211a_1
*I *245:X O *D sky130_fd_sc_hd__clkbuf_4
*CAP
1 *281:A1 0.000155851
2 *261:A1 0.000745994
3 *287:A1 3.36724e-05
4 *276:A1 6.496e-05
5 *272:A1 0
6 *265:A1 0.000138634
7 *257:A1 0.000112162
8 *254:A1 0
9 *268:A1 9.28009e-06
10 *285:A1 0.000109113
11 *245:X 0
12 *41:120 0.00123163
13 *41:70 0.000254509
14 *41:57 0.000409211
15 *41:51 0.000572433
16 *41:47 0.00078633
17 *41:31 0.000934933
18 *41:21 0.00054417
19 *41:8 0.000787777
20 *41:4 0.000757805
21 *257:A1 *257:D1 0.000406969
22 *257:A1 *46:32 0.000755911
23 *261:A1 *249:A2 0.000166093
24 *261:A1 *261:A2 2.2339e-05
25 *261:A1 *294:CLK 1.24368e-05
26 *261:A1 *46:16 0.000406947
27 *261:A1 *78:60 0.000150773
28 *261:A1 *79:36 7.85137e-05
29 *261:A1 *87:62 2.16394e-05
30 *265:A1 *265:A2 0.000183556
31 *265:A1 *305:A 1.58435e-05
32 *265:A1 *46:58 0
33 *268:A1 *308:A 5.52238e-05
34 *268:A1 *49:39 2.44318e-05
35 *276:A1 *239:D 6.07135e-05
36 *276:A1 *83:8 1.83053e-05
37 *281:A1 *303:CLK 2.53112e-06
38 *281:A1 *303:D 5.33005e-05
39 *281:A1 *316:A 5.48715e-05
40 *281:A1 *46:16 1.46689e-05
41 *281:A1 *97:10 0.00010137
42 *285:A1 *75:23 9.7435e-05
43 *287:A1 *240:A 8.10123e-06
44 *287:A1 *302:CLK 5.50052e-05
45 *41:8 *283:A2 0.000182598
46 *41:8 *284:B 0.000180207
47 *41:8 *69:6 0.000194744
48 *41:8 *84:33 0.000130197
49 *41:8 *84:37 0.000269436
50 *41:8 *85:20 0.000487519
51 *41:8 *85:22 0.000139202
52 *41:21 *285:A2 1.30914e-05
53 *41:21 *302:CLK 0.000223684
54 *41:21 *75:23 0.000138287
55 *41:31 *239:C 3.44911e-05
56 *41:31 *239:D 0.000154603
57 *41:31 *273:A 3.27461e-05
58 *41:31 *285:A2 1.58559e-05
59 *41:31 *46:77 4.42778e-05
60 *41:31 *83:23 6.78931e-05
61 *41:47 *272:B1 9.90367e-05
62 *41:47 *286:A 0.000124012
63 *41:47 *286:B 0.000197968
64 *41:47 *82:10 7.33262e-05
65 *41:47 *82:26 0
66 *41:47 *83:8 1.83136e-05
67 *41:51 *265:A2 4.08637e-05
68 *41:51 *272:B1 1.12713e-05
69 *41:51 *46:62 0.000215602
70 *41:57 *295:CLK 0.000112203
71 *41:57 *46:58 0.000498891
72 *41:57 *49:28 2.39779e-05
73 *41:70 *254:A2 1.02132e-05
74 *41:70 *254:C1 5.49489e-05
75 *41:70 *257:D1 0.000140787
76 *41:70 *268:D1 0
77 *41:70 *308:A 0.000167954
78 *41:70 *46:32 2.36643e-05
79 *41:70 *46:43 5.32552e-05
80 *41:70 *49:39 0.000446839
81 *41:120 *279:A2 0.000226867
82 *41:120 *46:6 7.09928e-05
83 *41:120 *46:16 9.83388e-05
84 *244:A *261:A1 0.000101915
85 *279:A1 *41:8 2.12647e-05
86 *295:D *41:57 7.89362e-05
87 *297:D *41:47 0.000214382
88 *298:D *41:47 0.000223469
89 *28:16 *261:A1 0.000240708
*RES
1 *245:X *41:4 9.3 
2 *41:4 *41:8 16.5357 
3 *41:8 *285:A1 16.3536 
4 *41:8 *41:21 5.82143 
5 *41:21 *41:31 10.2679 
6 *41:31 *41:47 22.0714 
7 *41:47 *41:51 3.32143 
8 *41:51 *41:57 16.1071 
9 *41:57 *268:A1 9.83571 
10 *41:57 *41:70 6.32143 
11 *41:70 *254:A1 9.3 
12 *41:70 *257:A1 16.4071 
13 *41:51 *265:A1 20.8 
14 *41:47 *272:A1 9.3 
15 *41:31 *276:A1 10.6571 
16 *41:21 *287:A1 14.5411 
17 *41:4 *41:120 11.1964 
18 *41:120 *261:A1 29.5857 
19 *41:120 *281:A1 16.8893 
*END

*D_NET *42 0.00121612
*CONN
*I *247:B1 I *D sky130_fd_sc_hd__o21a_1
*I *246:Y O *D sky130_fd_sc_hd__nand2_1
*CAP
1 *247:B1 0.000305781
2 *246:Y 0.000305781
3 *247:B1 *236:A2_N 9.75171e-05
4 *247:B1 *246:A 5.49544e-05
5 *247:B1 *78:90 3.90002e-05
6 *247:B1 *87:27 0.000125542
7 *231:A2 *247:B1 1.19813e-05
8 *235:B *247:B1 9.99853e-05
9 *246:B *247:B1 1.13883e-05
10 *31:12 *247:B1 2.8604e-05
11 *32:16 *247:B1 5.66472e-05
12 *33:14 *247:B1 7.89362e-05
*RES
1 *246:Y *247:B1 34.3143 
*END

*D_NET *43 0.0013214
*CONN
*I *249:A2 I *D sky130_fd_sc_hd__o211a_1
*I *247:X O *D sky130_fd_sc_hd__o21a_1
*CAP
1 *249:A2 0.000328994
2 *247:X 0.000328994
3 *249:A2 *242:A 9.67754e-05
4 *249:A2 *242:B 2.83425e-05
5 *249:A2 *249:B1 4.10796e-05
6 *249:A2 *87:27 1.24368e-05
7 *243:A_N *249:A2 0.000136771
8 *243:D *249:A2 9.75679e-05
9 *249:C1 *249:A2 1.24368e-05
10 *261:A1 *249:A2 0.000166093
11 *28:16 *249:A2 2.34188e-05
12 *30:12 *249:A2 4.16517e-05
13 *38:12 *249:A2 6.8377e-06
*RES
1 *247:X *249:A2 34.3857 
*END

*D_NET *44 0.000995603
*CONN
*I *249:B1 I *D sky130_fd_sc_hd__o211a_1
*I *248:Y O *D sky130_fd_sc_hd__o21bai_1
*CAP
1 *249:B1 0.000241029
2 *248:Y 0.000241029
3 *249:B1 *45:12 2.11336e-05
4 *243:A_N *249:B1 1.34631e-05
5 *248:A1 *249:B1 5.33005e-05
6 *248:A2 *249:B1 1.47872e-05
7 *249:A2 *249:B1 4.10796e-05
8 *249:C1 *249:B1 3.50166e-05
9 *38:12 *249:B1 0.000334764
*RES
1 *248:Y *249:B1 25.3321 
*END

*D_NET *45 0.00143189
*CONN
*I *250:A I *D sky130_fd_sc_hd__clkbuf_4
*I *279:A2 I *D sky130_fd_sc_hd__o2111a_1
*I *249:X O *D sky130_fd_sc_hd__o211a_1
*CAP
1 *250:A 0
2 *279:A2 0.000284507
3 *249:X 0.000139118
4 *45:12 0.000423625
5 *279:A2 *278:B 4.84159e-05
6 *279:A2 *279:C1 1.12713e-05
7 *279:A2 *84:12 3.11088e-05
8 *279:A2 *84:27 0.000245839
9 *249:B1 *45:12 2.11336e-05
10 *41:120 *279:A2 0.000226867
*RES
1 *249:X *45:12 20.4786 
2 *45:12 *279:A2 24.9071 
3 *45:12 *250:A 9.3 
*END

*D_NET *46 0.0151274
*CONN
*I *281:A2 I *D sky130_fd_sc_hd__o211a_1
*I *261:A2 I *D sky130_fd_sc_hd__o211a_1
*I *257:A2 I *D sky130_fd_sc_hd__o2111a_1
*I *265:A2 I *D sky130_fd_sc_hd__o211a_1
*I *272:A2 I *D sky130_fd_sc_hd__o211a_1
*I *285:A2 I *D sky130_fd_sc_hd__o211a_1
*I *287:A2 I *D sky130_fd_sc_hd__o211a_1
*I *276:A2 I *D sky130_fd_sc_hd__o211a_1
*I *268:A2 I *D sky130_fd_sc_hd__o2111a_1
*I *254:A2 I *D sky130_fd_sc_hd__o211a_1
*I *250:X O *D sky130_fd_sc_hd__clkbuf_4
*CAP
1 *281:A2 8.94559e-05
2 *261:A2 0.000218169
3 *257:A2 0
4 *265:A2 8.77682e-05
5 *272:A2 0
6 *285:A2 0.000386938
7 *287:A2 3.64069e-05
8 *276:A2 2.89843e-05
9 *268:A2 1.42796e-05
10 *254:A2 2.00462e-05
11 *250:X 9.53071e-05
12 *46:77 0.000606975
13 *46:66 0.000432575
14 *46:62 0.00029449
15 *46:58 0.000365801
16 *46:43 0.000482971
17 *46:32 0.000581609
18 *46:28 0.000890155
19 *46:16 0.00151116
20 *46:6 0.000883969
21 *261:A2 *261:B1 3.50166e-05
22 *261:A2 *294:CLK 3.97677e-05
23 *265:A2 *265:B1 1.8461e-05
24 *265:A2 *55:17 9.1046e-05
25 *265:A2 *55:31 3.69047e-06
26 *268:A2 *266:A 5.33005e-05
27 *268:A2 *308:A 5.52302e-05
28 *276:A2 *276:B1 3.50746e-05
29 *281:A2 *316:A 4.87327e-05
30 *281:A2 *97:10 0.00010137
31 *285:A2 *283:A2 3.20025e-05
32 *285:A2 *284:B 0.000101777
33 *285:A2 *285:B1 0.000130714
34 *285:A2 *285:C1 1.32293e-05
35 *285:A2 *287:B1 5.90911e-05
36 *285:A2 *302:CLK 0.000117494
37 *285:A2 *49:18 0.000164701
38 *285:A2 *75:23 9.12876e-05
39 *46:16 *242:B 5.80494e-05
40 *46:16 *76:59 0.000158771
41 *46:16 *76:70 0.00016275
42 *46:16 *78:60 0.000270997
43 *46:16 *87:12 0.000143914
44 *46:16 *97:10 5.49489e-05
45 *46:28 *257:B1 4.09221e-05
46 *46:28 *257:D1 9.21933e-05
47 *46:28 *76:59 9.91086e-05
48 *46:28 *78:25 0.000120902
49 *46:28 *78:34 7.80092e-05
50 *46:28 *78:60 9.48877e-05
51 *46:32 *257:D1 2.39983e-05
52 *46:43 *254:C1 2.84026e-05
53 *46:43 *266:A 9.60939e-05
54 *46:43 *308:A 0.000345869
55 *46:58 *272:B1 3.99614e-06
56 *46:58 *49:22 1.02504e-05
57 *46:58 *49:24 0.00026898
58 *46:58 *49:28 0.000285433
59 *46:62 *272:B1 3.89466e-05
60 *46:62 *55:31 2.79421e-05
61 *46:66 *239:D 0.000126409
62 *46:66 *270:A1 0.000125724
63 *46:66 *274:B 6.79767e-05
64 *46:66 *287:B1 0.00014852
65 *46:66 *49:22 3.19202e-05
66 *46:66 *81:25 0.000307767
67 *46:66 *81:44 7.74135e-05
68 *46:77 *239:C 0.000119112
69 *46:77 *287:B1 0.00038588
70 *243:D *46:16 0.000124019
71 *244:A *46:16 0.000103437
72 *257:A1 *46:32 0.000755911
73 *261:A1 *261:A2 2.2339e-05
74 *261:A1 *46:16 0.000406947
75 *265:A1 *265:A2 0.000183556
76 *265:A1 *46:58 0
77 *281:A1 *46:16 1.46689e-05
78 *292:D *46:32 5.62995e-05
79 *293:D *46:28 0.000206784
80 *294:D *261:A2 5.33005e-05
81 *41:21 *285:A2 1.30914e-05
82 *41:31 *285:A2 1.58559e-05
83 *41:31 *46:77 4.42778e-05
84 *41:51 *265:A2 4.08637e-05
85 *41:51 *46:62 0.000215602
86 *41:57 *46:58 0.000498891
87 *41:70 *254:A2 1.02132e-05
88 *41:70 *46:32 2.36643e-05
89 *41:70 *46:43 5.32552e-05
90 *41:120 *46:6 7.09928e-05
91 *41:120 *46:16 9.83388e-05
*RES
1 *250:X *46:6 10.6571 
2 *46:6 *46:16 23.1429 
3 *46:16 *46:28 17.7321 
4 *46:28 *46:32 8.35714 
5 *46:32 *254:A2 9.72857 
6 *46:32 *46:43 5.89286 
7 *46:43 *268:A2 9.83571 
8 *46:43 *46:58 16.5357 
9 *46:58 *46:62 2.19643 
10 *46:62 *46:66 11 
11 *46:66 *276:A2 14.5321 
12 *46:66 *46:77 4.98214 
13 *46:77 *287:A2 14.5321 
14 *46:77 *285:A2 23.7286 
15 *46:62 *272:A2 9.3 
16 *46:58 *265:A2 12.3179 
17 *46:28 *257:A2 9.3 
18 *46:16 *261:A2 16.7107 
19 *46:6 *281:A2 20.2464 
*END

*D_NET *47 0.000505107
*CONN
*I *254:B1 I *D sky130_fd_sc_hd__o211a_1
*I *251:Y O *D sky130_fd_sc_hd__inv_2
*CAP
1 *254:B1 0.000238632
2 *251:Y 0.000238632
3 *254:B1 *254:C1 9.11048e-06
4 *292:D *254:B1 1.87336e-05
*RES
1 *251:Y *254:B1 30.6179 
*END

*D_NET *48 0.00157795
*CONN
*I *253:A I *D sky130_fd_sc_hd__clkbuf_4
*I *279:D1 I *D sky130_fd_sc_hd__o2111a_1
*I *252:Y O *D sky130_fd_sc_hd__inv_2
*CAP
1 *253:A 0.00018844
2 *279:D1 7.5043e-05
3 *252:Y 0.000310155
4 *48:8 0.000573638
5 *253:A *280:B 2.56839e-05
6 *279:D1 *278:B 8.81417e-06
7 *279:D1 *280:B 1.8441e-05
8 *279:D1 *66:10 2.53112e-06
9 *48:8 *75:38 0.000100037
10 *48:8 *75:53 0.000257751
11 *299:D *48:8 1.74179e-05
*RES
1 *252:Y *48:8 18.0321 
2 *48:8 *279:D1 14.9875 
3 *48:8 *253:A 17.2643 
*END

*D_NET *49 0.0165893
*CONN
*I *281:C1 I *D sky130_fd_sc_hd__o211a_1
*I *285:C1 I *D sky130_fd_sc_hd__o211a_1
*I *287:C1 I *D sky130_fd_sc_hd__o211a_1
*I *276:C1 I *D sky130_fd_sc_hd__o211a_1
*I *272:C1 I *D sky130_fd_sc_hd__o211a_1
*I *261:C1 I *D sky130_fd_sc_hd__o211a_1
*I *265:C1 I *D sky130_fd_sc_hd__o211a_1
*I *257:D1 I *D sky130_fd_sc_hd__o2111a_1
*I *254:C1 I *D sky130_fd_sc_hd__o211a_1
*I *268:D1 I *D sky130_fd_sc_hd__o2111a_1
*I *253:X O *D sky130_fd_sc_hd__clkbuf_4
*CAP
1 *281:C1 0.000554814
2 *285:C1 6.15931e-05
3 *287:C1 0
4 *276:C1 0
5 *272:C1 0
6 *261:C1 0.000556494
7 *265:C1 4.02682e-05
8 *257:D1 0.000707359
9 *254:C1 7.27107e-05
10 *268:D1 0.00016536
11 *253:X 0
12 *49:73 0.00112463
13 *49:39 0.00111952
14 *49:28 0.000656544
15 *49:24 0.000790182
16 *49:22 0.000326177
17 *49:20 0.000350499
18 *49:18 0.000420674
19 *49:12 0.000976963
20 *49:4 0.00118441
21 *257:D1 *257:B1 9.83388e-05
22 *261:C1 *261:B1 5.49544e-05
23 *261:C1 *262:B 5.55219e-05
24 *261:C1 *264:B 0.000443399
25 *261:C1 *265:B1 9.83442e-05
26 *261:C1 *55:6 2.571e-05
27 *261:C1 *80:10 1.17968e-05
28 *261:C1 *80:30 7.15591e-05
29 *261:C1 *93:16 0.000222498